/batch
/config,noeldb,1     ! force off writing results to database
*get,_wallstrt,active,,time,wall
! ANSYS input file written by Workbench version 2022 R1
! File used for geometry attach: C:\Users\Dharshan K\AppData\Local\Temp\WB_Dharshan K_11736_2\wbnew_files\dp0\SYS\DM\SYS.scdoc
/title,wbnew--Static Structural (A5)
! ****** Begin Custom Load Command Snippet ******
/COM, ACT Extensions:
/COM,     LSDYNA, 2021.1
/COM,     5f463412-bd3e-484b-87e7-cbc0a665e474, wbex
/COM,
! ****** End   Custom Load Command Snippet ******
*DIM,_wb_ProjectScratch_dir,string,248
_wb_ProjectScratch_dir(1) = 'C:\Users\Dharshan K\AppData\Local\Temp\WB_Dharshan K_11736_2\_ProjectScratch\Scr0999\'
*DIM,_wb_SolverFiles_dir,string,248
_wb_SolverFiles_dir(1) = 'C:\Users\Dharshan K\AppData\Local\Temp\WB_Dharshan K_11736_2\wbnew_files\dp0\SYS\MECH\'
*DIM,_wb_userfiles_dir,string,248
_wb_userfiles_dir(1) = 'C:\Users\Dharshan K\AppData\Local\Temp\WB_Dharshan K_11736_2\wbnew_files\user_files\'
/com,--- Data in consistent MKS units. See Solving Units in the help system for more information.
/units,MKS
/nopr
/wb,file,start              !  signify a WB generated input file
/prep7
! Turn off shape checking because checks already performed inside WB mesher.
! See help system for more information.
SHPP,OFF,,NOWARN
/nolist
etcon,set             ! allow ANSYS to choose best KEYOP's for 180x elements, resets any applicable keyopt to MAPDL defaults
/com,*********** Nodes for the whole assembly ***********
nblock,3,,2559
(1i9,3e20.9e3)
        1    -2.500000000E-01     3.000000000E-02     0.000000000E+00
        2    -5.500000000E-01     3.000000000E-02     0.000000000E+00
        3    -2.875000000E-01     3.000000000E-02     0.000000000E+00
        4    -3.250000000E-01     3.000000000E-02     0.000000000E+00
        5    -3.625000000E-01     3.000000000E-02     0.000000000E+00
        6    -4.000000000E-01     3.000000000E-02     0.000000000E+00
        7    -4.375000000E-01     3.000000000E-02     0.000000000E+00
        8    -4.750000000E-01     3.000000000E-02     0.000000000E+00
        9    -5.125000000E-01     3.000000000E-02     0.000000000E+00
       10    -5.500000000E-01    -3.000000000E-02     1.699661669E-17
       11    -5.500000000E-01     1.500000000E-02     2.598076211E-02
       12    -5.500000000E-01    -1.500000000E-02     2.598076211E-02
       13    -2.500000000E-01    -3.000000000E-02     1.699661669E-17
       14    -2.875000000E-01    -3.000000000E-02     1.699661669E-17
       15    -3.250000000E-01    -3.000000000E-02     1.699661669E-17
       16    -3.625000000E-01    -3.000000000E-02     1.699661669E-17
       17    -4.000000000E-01    -3.000000000E-02     1.699661669E-17
       18    -4.375000000E-01    -3.000000000E-02     1.699661669E-17
       19    -4.750000000E-01    -3.000000000E-02     1.699661669E-17
       20    -5.125000000E-01    -3.000000000E-02     1.699661669E-17
! ... 2308 like lines cut
/wb,elem,start            !  set before creation of elements
/com,*********** Elements for Body 1 "SYS\PartBody/Mirror.3" ***********
et,1,187
eblock,19,solid,,1110
(19i9)
        1        1        1        1        0        0        0        0       10        0        1      221      420      232      378     1688     1737     1686     1687
     2283     1735
        1        1        1        1        0        0        0        0       10        0        2      220      221      420      232     1677     1688     1684     1679
     1686     1737
        1        1        1        1        0        0        0        0       10        0        3      150      420      221      378     1384     1688     1382     1383
     2283     1687
        1        1        1        1        0        0        0        0       10        0        4      150      220      221      420     1381     1677     1382     1384
     1684     1688
        1        1        1        1        0        0        0        0       10        0        5      193      420      378      413     1559     2283     1557     1558
     2326     2282
        1        1        1        1        0        0        0        0       10        0        6      182      193      420      378     1506     1559     1510     1508
     1557     2283
        1        1        1        1        0        0        0        0       10        0        7      150      182      420      378     1380     1510     1384     1383
     1508     2283
        1        1        1        1        0        0        0        0       10        0        8      149      420      150      182     1378     1384     1374     1375
     1510     1380
        1        1        1        1        0        0        0        0       10        0        9      232      378      420      413     1735     2283     1737     1736
     2282     2326
        1        1        1        1        0        0        0        0       10        0       10      149      220      150      420     1377     1381     1374     1378
     1684     1384
! ... 2201 like lines cut
!Material Id = {CF656409-3244-47D3-84DC-4F351008A3CA}
/wb,elem,end               !  done creating elements
/com,*********** Send User Defined Coordinate System(s) ***********
csys,0
toffst,273.15,  ! Temperature offset from absolute zero
/com,*********** Set Reference Temperature ***********
tref,22.
/wb,mat,start              !  starting to send materials
/com,*********** Send Materials ***********
Temperature = 'TEMP' ! Temperature
MP,DENS,1,7850,	! kg m^-3
MP,ALPX,1,1.2e-05,	! C^-1
MP,C,1,434,	! J kg^-1 C^-1
MP,KXX,1,60.5,	! W m^-1 C^-1
MP,RSVX,1,1.7e-07,	! kg m^3 A^-2 s^-3
MP,EX,1,200000000000,	! Pa
MP,NUXY,1,0.3,
MP,MURX,1,10000,
MP,UVID,1,af0b781d-452f-43ae-8877-f88c1847048d
MP,UMID,1,59002a79-71c2-428e-906b-55d7dbee100e

/wb,mat,end                !  done sending materials
!************************* Model Summary ********************
!SYS\PartBody/Mirror.3,	Structural Steel,	matid,	1
!************************* End Model Summary ********************
! get the diagonal of the bounding box. Needed later for other things
*get,_xmin,node,,mnloc,x
*get,_ymin,node,,mnloc,y
*get,_zmin,node,,mnloc,z
*get,_xmax,node,,mxloc,x
*get,_ymax,node,,mxloc,y
*get,_zmax,node,,mxloc,z
_ASMDIAG=(_xmax-_xmin)*(_xmax-_xmin)+(_ymax-_ymin)*(_ymax-_ymin)+(_zmax-_zmin)*(_zmax-_zmin)
_ASMDIAG=SQRT(_ASMDIAG)
/wb,contact,start          !  starting to send contact
/wb,contact,end            !  done creating contacts
/golist
/wb,load,start             !  starting to send loads
/com,*********** Fixed Supports ***********
CMBLOCK,_FIXEDSU,NODE,       25
(8i10)
        75        85        95        96        97        98        99       100
       421       910       911       912       974       975       976      1038
      1041      1042      1043      1047      1048      1049      1052      1055
      1061
cmsel,s,_FIXEDSU
d,all,all
nsel,all
/com,*********** Define Force Using Surface Effect Elements ***********
local,12,0,0.,0.,0.,0.,0.,0.
csys,0
et,2,154
eblock,10,,,10
(15i9)
     1855        2        2        2       12       48       47       59       59      724      725       59      731
     1856        2        2        2       12       60       47      422      422      726      729      422      808
     1857        2        2        2       12       58      423       59       59      800      805       59      797
     1858        2        2        2       12       47       46      422      422      720      723      422      729
     1859        2        2        2       12       59       47       60       60      725      726       60      801
     1860        2        2        2       12       35      422       46       46      655      723       46      653
     1861        2        2        2       12       35       60      422      422      654      808      422      655
     1862        2        2        2       12       45      423       58       58      719      800       58      718
     1863        2        2        2       12       45       48      423      423      716      735      423      719
     1864        2        2        2       12      423       48       59       59      735      731       59      805
-1
esel,s,type,,2
keyop,2,2,1                ! Apply load in local coordinate system
keyop,2,7,1                ! Use original area so load is constant in large deformation
esel,all
/gst,on,on
fini
*get,_numnode,node,0,count
*get,_numelem,elem,0,count
*get, _MAXELEMNUM, elem, 0, NUM, MAX
*get, _MAXNODENUM, node, 0, NUM, MAX
*get, _MAXELEMTYPE, etyp, 0, NUM, MAX
*get, _MAXREALCONST, real, 0, NUM, MAX
/go
/wb,load,end               !  done creating loads
/com,--- Number of total nodes = %_numnode%
/com,--- Number of contact elements = 10
/com,--- Number of spring elements = 0
/com,--- Number of bearing elements = 0
/com,--- Number of solid elements = 1110
/com,--- Number of condensed parts = 0
/com,--- Number of total elements = %_numelem%
*get,_wallbsol,active,,time,wall
/com,****************************************************************************
/com,*************************    SOLUTION       ********************************
/com,****************************************************************************
/solu
antype,0                   ! static analysis
_thickRatio=  0     ! Ratio of thick parts in the model
eqsl,sparse,,,,,1
cntr,print,1               ! print out contact info and also make no initial contact an error
dmpoption,emat,no             ! Don't combine emat file for DANSYS
dmpoption,esav,no             ! Don't combine esav file for DANSYS
nldiag,cont,iter           ! print out contact info each equilibrium iteration
rescontrol,,none                 ! Do not keep any restart files
/com,****************************************************
/com,******************* SOLVE FOR LS 1 OF 1 ****************
esel,s,type,,2
nsle
sfe,all,1,pres,1,-160354254.098552
sfe,all,2,pres,1,0.
sfe,all,3,pres,1,0.
nsel,all
esel,all
/nopr
/gopr
nsub,1,1,1
time,1.
outres,erase
outres,all,none
outres,nsol,all,
outres,rsol,all
outres,eangl,all
outres,etmp,all
outres,veng,all
outres,strs,all,
outres,epel,all,
outres,eppl,all,
outres,cont,all,
! *********** WB SOLVE COMMAND ***********
! check interactive state
*get,ANSINTER_,active,,int
*if,ANSINTER_,ne,0,then
/eof
*endif
solve
/com *************** Write FE CONNECTORS ********* 
CEWRITE,file,ce,,INTE
/com,****************************************************
/com,*************** FINISHED SOLVE FOR LS 1 *************
*get,_wallasol,active,,time,wall
/nopr
*get,_numnode,node,0,count
*get,_numelem,elem,0,count
*get, _MAXELEMNUM, elem, 0, NUM, MAX
*get, _MAXNODENUM, node, 0, NUM, MAX,,,INTERNAL
*get, _MAXELEMTYPE, etyp, 0, NUM, MAX
*get, _MAXREALCONST, real, 0, NUM, MAX
/gopr
/post1
xmlo,ENCODING,ISO-8859-1
xmlo,parm
/xml,parm,xml
fini
/gopr
*get,_walldone,active,,time,wall
_preptime=(_wallbsol-_wallstrt)*3600
_solvtime=(_wallasol-_wallbsol)*3600
_posttime=(_walldone-_wallasol)*3600
_totaltim=(_walldone-_wallstrt)*3600
*get,_dlbratio,active,0,solu,dlbr
*get,_combtime,active,0,solu,comb
*get,_ssmode,active,0,solu,ssmm
*get,_ndofs,active,0,solu,ndof
*get,_sol_end_time,active,0,set,time
*if,_sol_end_time,eq,1.000000,then
/fclean				!clean distributed files
*endif
/com,--- Total number of nodes = %_numnode%
/com,--- Total number of elements = %_numelem%
/com,--- Element load balance ratio = %_dlbratio%
/com,--- Time to combine distributed files = %_combtime%
/com,--- Sparse memory mode = %_ssmode%
/com,--- Number of DOF = %_ndofs%
/wb,file,end               ! done with WB generated input
