/batch
/config,noeldb,1     ! force off writing results to database
*get,_wallstrt,active,,time,wall
! ANSYS input file written by Workbench version 2022 R1
! File used for geometry attach: C:\Users\Dharshan K\AppData\Local\Temp\WB_Dharshan K_5868_2\wbnew_files\dp0\SYS\DM\SYS.scdoc
/title,wbnew--Static Structural (A5)
! ****** Begin Custom Load Command Snippet ******
/COM, ACT Extensions:
/COM,     LSDYNA, 2021.1
/COM,     5f463412-bd3e-484b-87e7-cbc0a665e474, wbex
/COM,
! ****** End   Custom Load Command Snippet ******
*DIM,_wb_ProjectScratch_dir,string,248
_wb_ProjectScratch_dir(1) = 'C:\Users\Dharshan K\AppData\Local\Temp\WB_Dharshan K_5868_2\_ProjectScratch\Scr1B72\'
*DIM,_wb_SolverFiles_dir,string,248
_wb_SolverFiles_dir(1) = 'C:\Users\Dharshan K\AppData\Local\Temp\WB_Dharshan K_5868_2\wbnew_files\dp0\SYS\MECH\'
*DIM,_wb_userfiles_dir,string,248
_wb_userfiles_dir(1) = 'C:\Users\Dharshan K\AppData\Local\Temp\WB_Dharshan K_5868_2\wbnew_files\user_files\'
/com,--- Data in consistent MKS units. See Solving Units in the help system for more information.
/units,MKS
/nopr
/wb,file,start              !  signify a WB generated input file
/prep7
! Turn off shape checking because checks already performed inside WB mesher.
! See help system for more information.
SHPP,OFF,,NOWARN
/nolist
etcon,set             ! allow ANSYS to choose best KEYOP's for 180x elements, resets any applicable keyopt to MAPDL defaults
/com,*********** Nodes for the whole assembly ***********
nblock,3,,16834
(1i9,3e20.9e3)
        1    -7.402619792E-02    -4.409738021E-01     0.000000000E+00
        2    -5.205836165E-01    -4.409738021E-01     0.000000000E+00
        3    -9.344173786E-02    -4.409738021E-01     0.000000000E+00
        4    -1.128572778E-01    -4.409738021E-01     0.000000000E+00
        5    -1.322728177E-01    -4.409738021E-01     0.000000000E+00
        6    -1.516883577E-01    -4.409738021E-01     0.000000000E+00
        7    -1.711038976E-01    -4.409738021E-01     0.000000000E+00
        8    -1.905194375E-01    -4.409738021E-01     0.000000000E+00
        9    -2.099349775E-01    -4.409738021E-01     0.000000000E+00
       10    -2.293505174E-01    -4.409738021E-01     0.000000000E+00
       11    -2.487660574E-01    -4.409738021E-01     0.000000000E+00
       12    -2.681815973E-01    -4.409738021E-01     0.000000000E+00
       13    -2.875971372E-01    -4.409738021E-01     0.000000000E+00
       14    -3.070126772E-01    -4.409738021E-01     0.000000000E+00
       15    -3.264282171E-01    -4.409738021E-01     0.000000000E+00
       16    -3.458437570E-01    -4.409738021E-01     0.000000000E+00
       17    -3.652592970E-01    -4.409738021E-01     0.000000000E+00
       18    -3.846748369E-01    -4.409738021E-01     0.000000000E+00
       19    -4.040903768E-01    -4.409738021E-01     0.000000000E+00
       20    -4.235059168E-01    -4.409738021E-01     0.000000000E+00
! ... 15285 like lines cut
/wb,elem,start            !  set before creation of elements
/com,*********** Elements for Body 1 "SYS\PartBody/Mirror.2" ***********
et,1,187
eblock,19,solid,,7932
(19i9)
        1        1        1        1        0        0        0        0       10        0        1     1460     2386     2621     2598    10864    15027    10867    10866
    15024    15301
        1        1        1        1        0        0        0        0       10        0        2     2386     2387     2621     2598    15021    15031    15027    15024
    15030    15301
        1        1        1        1        0        0        0        0       10        0        3      382     1460     2621     2598     5262    10867     5266     5265
    10866    15301
        1        1        1        1        0        0        0        0       10        0        4      382     2621     2387     2598     5266    15031     5264     5265
    15301    15030
        1        1        1        1        0        0        0        0       10        0        5      328     2621      338     2388     4883     4951     4879     4882
    15036     4950
        1        1        1        1        0        0        0        0       10        0        6      328     2387     2621     2388     4881    15031     4883     4882
    15028    15036
        1        1        1        1        0        0        0        0       10        0        7      328      382     2621     2387     4880     5266     4883     4881
     5264    15031
        1        1        1        1        0        0        0        0       10        0        8      328     2621      382      338     4883     5266     4880     4879
     4951     4946
        1        1        1        1        0        0        0        0       10        0        9     1461     2621     2386     2546    10871    15027    10869    10870
    15291    15023
        1        1        1        1        0        0        0        0       10        0       10     1437     1461     2621     2386    10746    10871    10750    10749
    10869    15027
! ... 15845 like lines cut
!Material Id = {9E5337AE-ABC4-4FC2-B128-F848847553C1}
/wb,elem,end               !  done creating elements
/com,*********** Send User Defined Coordinate System(s) ***********
csys,0
toffst,273.15,  ! Temperature offset from absolute zero
/com,*********** Set Reference Temperature ***********
tref,22.
/wb,mat,start              !  starting to send materials
/com,*********** Send Materials ***********
Temperature = 'TEMP' ! Temperature
MP,DENS,1,7850,	! kg m^-3
MP,ALPX,1,1.2e-05,	! C^-1
MP,C,1,434,	! J kg^-1 C^-1
MP,KXX,1,60.5,	! W m^-1 C^-1
MP,RSVX,1,1.7e-07,	! kg m^3 A^-2 s^-3
MP,EX,1,200000000000,	! Pa
MP,NUXY,1,0.3,
MP,MURX,1,10000,
MP,UVID,1,27aa63af-ee4e-4557-b691-4bd4b4cde78b
MP,UMID,1,59002a79-71c2-428e-906b-55d7dbee100e

/wb,mat,end                !  done sending materials
!************************* Model Summary ********************
!SYS\PartBody/Mirror.2,	Structural Steel,	matid,	1
!************************* End Model Summary ********************
! get the diagonal of the bounding box. Needed later for other things
*get,_xmin,node,,mnloc,x
*get,_ymin,node,,mnloc,y
*get,_zmin,node,,mnloc,z
*get,_xmax,node,,mxloc,x
*get,_ymax,node,,mxloc,y
*get,_zmax,node,,mxloc,z
_ASMDIAG=(_xmax-_xmin)*(_xmax-_xmin)+(_ymax-_ymin)*(_ymax-_ymin)+(_zmax-_zmin)*(_zmax-_zmin)
_ASMDIAG=SQRT(_ASMDIAG)
/wb,contact,start          !  starting to send contact
/wb,contact,end            !  done creating contacts
/golist
/wb,load,start             !  starting to send loads
/com,*********** Fixed Supports ***********
CMBLOCK,_FIXEDSU,NODE,     2804
(8i10)
         1         2         3         4         5         6         7         8
         9        10        11        12        13        14        15        16
        17        18        19        20        21        22        23        24
        25        26        27        28        29        30        31        32
        33        34        35        36        37        38        39        40
        41        42        43        44        45        46        47        48
        49        50        51        52        53        54        55        56
        57        58        59        60        61        62       457       461
       465       466       467       468       469       470       471       472
       473       474       475       476       477       478       479       480
       481       482       483       484       485       486       487       488
       489       490       491       492       493       494       495       496
       497       498       499       500       501       502       503       504
       505       506       507       508       509       510       511       512
       513       514       515       516       517       518       519       520
       521       522       523       524       525       526       527       528
       529       530       531       532       533       534       535       536
       537       538       539       540       541       542       543       544
       545       546       547       548       549       550       551       552
       553       554       555       556       557       558       559       560
! ... 331 like lines cut
cmsel,s,_FIXEDSU
d,all,all
nsel,all
/com,*********** Define Force Using Surface Effect Elements ***********
local,12,0,0.,0.,0.,0.,0.,0.
csys,0
et,2,154
eblock,10,,,766
(15i9)
    12195        2        2        2       12      153     1933     1910     1910     3695    12984     1910     3694
    12196        2        2        2       12      151      150     1914     1914     3670     3673     1914     3680
    12197        2        2        2       12      152      151     1932     1932     3677     3681     1932     3688
    12198        2        2        2       12      150      149     1931     1931     3663     3667     1931     3674
    12199        2        2        2       12      169      166      170      170     3786     3787      170     3807
    12200        2        2        2       12      167      168     1907     1907     3792     3803     1907     3796
    12201        2        2        2       12      132      135      189      189     3550     3572      189     3553
    12202        2        2        2       12      149      148     1913     1913     3655     3659     1913     3666
    12203        2        2        2       12      177      178     1912     1912     3860     3870     1912     3863
    12204        2        2        2       12      154      153     1910     1910     3691     3694     1910     3701
    12205        2        2        2       12      145      167      146      146     3637     3643      146     3636
    12206        2        2        2       12      168      169     1908     1908     3800     3810     1908     3804
    12207        2        2        2       12      134      133     1905     1905     3556     3560     1905     3567
    12208        2        2        2       12      135      134     1906     1906     3564     3568     1906     3575
    12209        2        2        2       12      148      147     1909     1909     3650     3653     1909     3658
    12210        2        2        2       12      170      171     1911     1911     3814     3823     1911     3818
    12211        2        2        2       12      147      146     1909     1909     3642     3647     1909     3653
    12212        2        2        2       12      133      125      165      165     3507     3509      165     3557
    12213        2        2        2       12      155      154     1934     1934     3698     3702     1934     3711
    12214        2        2        2       12      156      155     1915     1915     3707     3710     1915     3718
! ... 747 like lines cut
esel,s,type,,2
keyop,2,2,1                ! Apply load in local coordinate system
keyop,2,7,1                ! Use original area so load is constant in large deformation
esel,all
/com,*********** Define Force Using Surface Effect Elements ***********
local,13,0,0.,0.,0.,0.,0.,0.
csys,0
et,3,154
eblock,10,,,810
(15i9)
    12961        3        3        3       13       77       76     2083     2083     3173     3177     2083     3185
    12962        3        3        3       13       75       74     2082     2082     3157     3161     2082     3168
    12963        3        3        3       13       73       72     2081     2081     3143     3147     2081     3155
    12964        3        3        3       13       71       70     2080     2080     3127     3131     2080     3139
    12965        3        3        3       13       94      118      115      115     3308     3457      115     3307
    12966        3        3        3       13      117      116     2055     2055     3463     3464     2055     3468
    12967        3        3        3       13       93       90       95       95     3277     3278       95     3299
    12968        3        3        3       13       91       92     2053     2053     3283     3295     2053     3286
    12969        3        3        3       13       92       93     2054     2054     3290     3302     2054     3296
    12970        3        3        3       13       76       75     2060     2060     3164     3167     2060     3176
    12971        3        3        3       13       74       73     2059     2059     3151     3154     2059     3160
    12972        3        3        3       13       72       71     2058     2058     3135     3138     2058     3146
    12973        3        3        3       13       70       69     2057     2057     3119     3124     2057     3130
    12974        3        3        3       13      118      117     2056     2056     3467     3469     2056     3471
    12975        3        3        3       13      116       68       89       89     3116     3115       89     3269
    12976        3        3        3       13       67       91       69       69     3110     3120       69     3109
    12977        3        3        3       13       78       77     2061     2061     3181     3184     2061     3193
    12978        3        3        3       13       79       78     2084     2084     3190     3194     2084     3200
    12979        3        3        3       13       80       79     2062     2062     3196     3199     2062     3207
    12980        3        3        3       13       81       80     2085     2085     3204     3208     2085     3216
! ... 791 like lines cut
esel,s,type,,3
keyop,3,2,1                ! Apply load in local coordinate system
keyop,3,7,1                ! Use original area so load is constant in large deformation
esel,all
/gst,on,on
fini
*get,_numnode,node,0,count
*get,_numelem,elem,0,count
*get, _MAXELEMNUM, elem, 0, NUM, MAX
*get, _MAXNODENUM, node, 0, NUM, MAX
*get, _MAXELEMTYPE, etyp, 0, NUM, MAX
*get, _MAXREALCONST, real, 0, NUM, MAX
/go
/wb,load,end               !  done creating loads
/com,--- Number of total nodes = %_numnode%
/com,--- Number of contact elements = 1576
/com,--- Number of spring elements = 0
/com,--- Number of bearing elements = 0
/com,--- Number of solid elements = 7932
/com,--- Number of condensed parts = 0
/com,--- Number of total elements = %_numelem%
*get,_wallbsol,active,,time,wall
/com,****************************************************************************
/com,*************************    SOLUTION       ********************************
/com,****************************************************************************
/solu
antype,0                   ! static analysis
_thickRatio=  1     ! Ratio of thick parts in the model
eqsl,pcg,1e-8,,,,,,1
cntr,print,1               ! print out contact info and also make no initial contact an error
dmpoption,emat,no             ! Don't combine emat file for DANSYS
dmpoption,esav,no             ! Don't combine esav file for DANSYS
nldiag,cont,iter           ! print out contact info each equilibrium iteration
rescontrol,,none                 ! Do not keep any restart files
/com,****************************************************
/com,******************* SOLVE FOR LS 1 OF 1 ****************
esel,s,type,,2
nsle
sfe,all,1,pres,1,0.
sfe,all,2,pres,1,0.
sfe,all,3,pres,1,-3852.43206952599
esel,s,type,,3
nsle
sfe,all,1,pres,1,-3733.8259739756
sfe,all,2,pres,1,0.
sfe,all,3,pres,1,0.
nsel,all
esel,all
/nopr
/gopr
nsub,1,1,1
time,1.
outres,erase
outres,all,none
outres,nsol,all,
outres,rsol,all
outres,eangl,all
outres,etmp,all
outres,veng,all
outres,strs,all,
outres,epel,all,
outres,eppl,all,
outres,cont,all,
! *********** WB SOLVE COMMAND ***********
! check interactive state
*get,ANSINTER_,active,,int
*if,ANSINTER_,ne,0,then
/eof
*endif
solve
/com *************** Write FE CONNECTORS ********* 
CEWRITE,file,ce,,INTE
/com,****************************************************
/com,*************** FINISHED SOLVE FOR LS 1 *************
*get,_wallasol,active,,time,wall
/nopr
*get,_numnode,node,0,count
*get,_numelem,elem,0,count
*get, _MAXELEMNUM, elem, 0, NUM, MAX
*get, _MAXNODENUM, node, 0, NUM, MAX,,,INTERNAL
*get, _MAXELEMTYPE, etyp, 0, NUM, MAX
*get, _MAXREALCONST, real, 0, NUM, MAX
/gopr
*get,_PCGITER,active,,solu,cgiter
/post1
xmlo,ENCODING,ISO-8859-1
xmlo,parm
/xml,parm,xml
fini
/gopr
*get,_walldone,active,,time,wall
_preptime=(_wallbsol-_wallstrt)*3600
_solvtime=(_wallasol-_wallbsol)*3600
_posttime=(_walldone-_wallasol)*3600
_totaltim=(_walldone-_wallstrt)*3600
*get,_dlbratio,active,0,solu,dlbr
*get,_combtime,active,0,solu,comb
*get,_ssmode,active,0,solu,ssmm
*get,_ndofs,active,0,solu,ndof
*get,_sol_end_time,active,0,set,time
*if,_sol_end_time,eq,1.000000,then
/fclean				!clean distributed files
*endif
/com,--- Total number of nodes = %_numnode%
/com,--- Total number of elements = %_numelem%
/com,--- Element load balance ratio = %_dlbratio%
/com,--- Time to combine distributed files = %_combtime%
/com,--- Sparse memory mode = %_ssmode%
/com,--- Number of DOF = %_ndofs%
/wb,file,end               ! done with WB generated input
