/batch
/config,noeldb,1     ! force off writing results to database
*get,_wallstrt,active,,time,wall
! ANSYS input file written by Workbench version 2022 R1
! File used for geometry attach: C:\Users\Dharshan K\AppData\Local\Temp\WB_Dharshan K_12668_2\wbnew_files\dp0\SYS\DM\SYS.agdb
/title,wbnew--Static Structural (A5)
! ****** Begin Custom Load Command Snippet ******
/COM, ACT Extensions:
/COM,     LSDYNA, 2021.1
/COM,     5f463412-bd3e-484b-87e7-cbc0a665e474, wbex
/COM,
! ****** End   Custom Load Command Snippet ******
*DIM,_wb_ProjectScratch_dir,string,248
_wb_ProjectScratch_dir(1) = 'C:\Users\Dharshan K\AppData\Local\Temp\WB_Dharshan K_12668_2\_ProjectScratch\Scr1533\'
*DIM,_wb_SolverFiles_dir,string,248
_wb_SolverFiles_dir(1) = 'C:\Users\Dharshan K\AppData\Local\Temp\WB_Dharshan K_12668_2\wbnew_files\dp0\SYS\MECH\'
*DIM,_wb_userfiles_dir,string,248
_wb_userfiles_dir(1) = 'C:\Users\Dharshan K\AppData\Local\Temp\WB_Dharshan K_12668_2\wbnew_files\user_files\'
/com,--- Data in consistent MKS units. See Solving Units in the help system for more information.
/units,MKS
/nopr
/wb,file,start              !  signify a WB generated input file
/prep7
! Turn off shape checking because checks already performed inside WB mesher.
! See help system for more information.
SHPP,OFF,,NOWARN
/nolist
etcon,set             ! allow ANSYS to choose best KEYOP's for 180x elements, resets any applicable keyopt to MAPDL defaults
/com,*********** Nodes for the whole assembly ***********
nblock,3,,679
(1i9,3e20.9e3)
        1     2.000000000E+00     0.000000000E+00     0.000000000E+00
        2     6.000000000E+00     0.000000000E+00     0.000000000E+00
        3     2.121212121E+00     0.000000000E+00     0.000000000E+00
        4     2.242424242E+00     0.000000000E+00     0.000000000E+00
        5     2.363636364E+00     0.000000000E+00     0.000000000E+00
        6     2.484848485E+00     0.000000000E+00     0.000000000E+00
        7     2.606060606E+00     0.000000000E+00     0.000000000E+00
        8     2.727272727E+00     0.000000000E+00     0.000000000E+00
        9     2.848484848E+00     0.000000000E+00     0.000000000E+00
       10     2.969696970E+00     0.000000000E+00     0.000000000E+00
       11     3.090909091E+00     0.000000000E+00     0.000000000E+00
       12     3.212121212E+00     0.000000000E+00     0.000000000E+00
       13     3.333333333E+00     0.000000000E+00     0.000000000E+00
       14     3.454545455E+00     0.000000000E+00     0.000000000E+00
       15     3.575757576E+00     0.000000000E+00     0.000000000E+00
       16     3.696969697E+00     0.000000000E+00     0.000000000E+00
       17     3.818181818E+00     0.000000000E+00     0.000000000E+00
       18     3.939393939E+00     0.000000000E+00     0.000000000E+00
       19     4.060606061E+00     0.000000000E+00     0.000000000E+00
       20     4.181818182E+00     0.000000000E+00     0.000000000E+00
! ... 599 like lines cut
/wb,elem,start            !  set before creation of elements
/com,*********** Elements for Body 1 "Line Body" ***********
et,1,188
keyo,1,3,2
eblock,19,solid,,311
(19i9)
        1        1        1        1        0        0        0        0        3        0        1        1        3      308
        1        1        1        1        0        0        0        0        3        0        2        3        4      309
        1        1        1        1        0        0        0        0        3        0        3        4        5      310
        1        1        1        1        0        0        0        0        3        0        4        5        6      311
        1        1        1        1        0        0        0        0        3        0        5        6        7      312
        1        1        1        1        0        0        0        0        3        0        6        7        8      313
        1        1        1        1        0        0        0        0        3        0        7        8        9      314
        1        1        1        1        0        0        0        0        3        0        8        9       10      315
        1        1        1        1        0        0        0        0        3        0        9       10       11      316
        1        1        1        1        0        0        0        0        3        0       10       11       12      317
        1        1        1        1        0        0        0        0        3        0       11       12       13      318
        1        1        1        1        0        0        0        0        3        0       12       13       14      319
        1        1        1        1        0        0        0        0        3        0       13       14       15      320
        1        1        1        1        0        0        0        0        3        0       14       15       16      321
        1        1        1        1        0        0        0        0        3        0       15       16       17      322
        1        1        1        1        0        0        0        0        3        0       16       17       18      323
        1        1        1        1        0        0        0        0        3        0       17       18       19      324
        1        1        1        1        0        0        0        0        3        0       18       19       20      325
        1        1        1        1        0        0        0        0        3        0       19       20       21      326
        1        1        1        1        0        0        0        0        3        0       20       21       22      327
! ... 292 like lines cut
!Material Id = {0AE18C3F-4B88-4002-9F47-F65C72BC6781}
/wb,elem,end               !  done creating elements
/com,*********** Send User Defined Coordinate System(s) ***********
local,12,0,2.,0.,0.,-30.,0.,0.
csys,0
toffst,273.15,  ! Temperature offset from absolute zero
/com,*********** Set Reference Temperature ***********
tref,22.
/wb,mat,start              !  starting to send materials
/com,*********** Send Materials ***********
Temperature = 'TEMP' ! Temperature
MP,DENS,1,7850,	! kg m^-3
MP,ALPX,1,1.2e-05,	! C^-1
MP,C,1,434,	! J kg^-1 C^-1
MP,KXX,1,60.5,	! W m^-1 C^-1
MP,RSVX,1,1.7e-07,	! kg m^3 A^-2 s^-3
MP,EX,1,200000000000,	! Pa
MP,NUXY,1,0.3,
MP,MURX,1,10000,
MP,UVID,1,0660a489-feae-4968-90f4-c7ab58969547
MP,UMID,1,59002a79-71c2-428e-906b-55d7dbee100e

/wb,mat,end                !  done sending materials
/com,*********** Send Beam Properties ***********
SECTYPE,1,BEAM,L
SECDATA,6.e-002,6.e-002,1.e-002,1.e-002
secoffset,cent

!************************* Model Summary ********************
!Line Body,	Structural Steel,	matid,	1
!************************* End Model Summary ********************
! get the diagonal of the bounding box. Needed later for other things
*get,_xmin,node,,mnloc,x
*get,_ymin,node,,mnloc,y
*get,_zmin,node,,mnloc,z
*get,_xmax,node,,mxloc,x
*get,_ymax,node,,mxloc,y
*get,_zmax,node,,mxloc,z
_ASMDIAG=(_xmax-_xmin)*(_xmax-_xmin)+(_ymax-_ymin)*(_ymax-_ymin)+(_zmax-_zmin)*(_zmax-_zmin)
_ASMDIAG=SQRT(_ASMDIAG)
/wb,contact,start          !  starting to send contact
/wb,contact,end            !  done creating contacts
/golist
/wb,load,start             !  starting to send loads
/com,*********** Fixed Supports ***********
CMBLOCK,_FIXEDSU,NODE,        1
(8i10)
         2
cmsel,s,_FIXEDSU
d,all,all
nsel,all
/com,******* Constant Zero Displacement Y *******
CMBLOCK,_DISPZEROUY,NODE,        1
(8i10)
        96
cmsel,s,_DISPZEROUY
d,all,uy,0
nsel,all
/com,******* Constant Zero Displacement Z *******
CMBLOCK,_DISPZEROUZ,NODE,        1
(8i10)
        96
cmsel,s,_DISPZEROUZ
d,all,uz,0
nsel,all
/com,*********** Define Vertex Force Using Follower Elements ***********
et,2,201
keyo,2,1,1           ! Keep the direction constant
keyo,2,2,1           ! Apply Forces only, not moment
mat,2
real,2
type,2
en,312,35
r,2
rmod,2,1,1.0,              ! FX
mat,3
real,3
type,2
en,313,35
r,3
rmod,3,2,1.0,              ! FY
mat,4
real,4
type,2
en,314,35
r,4
rmod,4,3,1.0,              ! FZ
/com,*********** Define Vertex Force Using Follower Elements ***********
et,5,201
keyo,5,1,1           ! Keep the direction constant
keyo,5,2,1           ! Apply Forces only, not moment
mat,5
real,5
type,5
en,315,141
r,5
rmod,5,1,1.0,              ! FX
mat,6
real,6
type,5
en,316,141
r,6
rmod,6,2,1.0,              ! FY
mat,7
real,7
type,5
en,317,141
r,7
rmod,7,3,1.0,              ! FZ
/com,*********** Define Vertex Force Using Follower Elements ***********
et,8,201
keyo,8,1,1           ! Keep the direction constant
keyo,8,2,1           ! Apply Forces only, not moment
mat,8
real,8
type,8
en,318,2
r,8
rmod,8,1,1.0,              ! FX
mat,9
real,9
type,8
en,319,2
r,9
rmod,9,2,1.0,              ! FY
mat,10
real,10
type,8
en,320,2
r,10
rmod,10,3,1.0,              ! FZ
/com,*********** Define Vertex Force Using Follower Elements ***********
et,11,201
keyo,11,1,1           ! Keep the direction constant
keyo,11,2,1           ! Apply Forces only, not moment
mat,11
real,11
type,11
en,321,1
r,11
rmod,11,1,1.0,              ! FX
mat,12
real,12
type,11
en,322,1
r,12
rmod,12,2,1.0,              ! FY
mat,13
real,13
type,11
en,323,1
r,13
rmod,13,3,1.0,              ! FZ
/gst,on,on
fini
*get,_numnode,node,0,count
*get,_numelem,elem,0,count
*get, _MAXELEMNUM, elem, 0, NUM, MAX
*get, _MAXNODENUM, node, 0, NUM, MAX
*get, _MAXELEMTYPE, etyp, 0, NUM, MAX
*get, _MAXREALCONST, real, 0, NUM, MAX
/go
/wb,load,end               !  done creating loads
/com,--- Number of total nodes = %_numnode%
/com,--- Number of contact elements = 0
/com,--- Number of spring elements = 0
/com,--- Number of bearing elements = 0
/com,--- Number of solid elements = 311
/com,--- Number of condensed parts = 0
/com,--- Number of total elements = %_numelem%
*get,_wallbsol,active,,time,wall
/com,****************************************************************************
/com,*************************    SOLUTION       ********************************
/com,****************************************************************************
/solu
antype,0                   ! static analysis
_thickRatio=  0     ! Ratio of thick parts in the model
eqsl,sparse,,,,,1
cntr,print,1               ! print out contact info and also make no initial contact an error
dmpoption,emat,no             ! Don't combine emat file for DANSYS
dmpoption,esav,no             ! Don't combine esav file for DANSYS
nldiag,cont,iter           ! print out contact info each equilibrium iteration
rescontrol,,none                 ! Do not keep any restart files
/com,****************************************************
/com,******************* SOLVE FOR LS 1 OF 1 ****************
esel,s,real,,2
sfe,all,1,pres,1,-5000.
esel,s,real,,3
sfe,all,1,pres,1,-8660.25403784439
esel,s,real,,4
sfe,all,1,pres,1,0.
esel,s,real,,5
sfe,all,1,pres,1,-10000.
esel,s,real,,6
sfe,all,1,pres,1,-17320.5080756888
esel,s,real,,7
sfe,all,1,pres,1,0.
esel,s,real,,8
sfe,all,1,pres,1,-5000.
esel,s,real,,9
sfe,all,1,pres,1,-8660.25403784439
esel,s,real,,10
sfe,all,1,pres,1,0.
esel,s,real,,11
sfe,all,1,pres,1,0.
esel,s,real,,12
sfe,all,1,pres,1,-10000.
esel,s,real,,13
sfe,all,1,pres,1,0.
esel,all
/nopr
/gopr
nsub,1,1,1
time,1.
outres,erase
outres,all,none
outres,nsol,all,
outres,rsol,all
outres,eangl,all
outres,etmp,all
outres,veng,all
outres,strs,all,
outres,epel,all,
outres,eppl,all,
outres,cont,all,
/nopr
esel,s,type,,1
cm,_elmisc,elem
esel,all
/gopr
outres,misc,all,_elmisc
! *********** WB SOLVE COMMAND ***********
! check interactive state
*get,ANSINTER_,active,,int
*if,ANSINTER_,ne,0,then
/eof
*endif
solve
/com *************** Write FE CONNECTORS ********* 
CEWRITE,file,ce,,INTE
/com,****************************************************
/com,*************** FINISHED SOLVE FOR LS 1 *************
*get,_wallasol,active,,time,wall
/nopr
*get,_numnode,node,0,count
*get,_numelem,elem,0,count
*get, _MAXELEMNUM, elem, 0, NUM, MAX
*get, _MAXNODENUM, node, 0, NUM, MAX,,,INTERNAL
*get, _MAXELEMTYPE, etyp, 0, NUM, MAX
*get, _MAXREALCONST, real, 0, NUM, MAX
/gopr
/post1
xmlo,ENCODING,ISO-8859-1
xmlo,parm
/xml,parm,xml
fini
/gopr
*get,_walldone,active,,time,wall
_preptime=(_wallbsol-_wallstrt)*3600
_solvtime=(_wallasol-_wallbsol)*3600
_posttime=(_walldone-_wallasol)*3600
_totaltim=(_walldone-_wallstrt)*3600
*get,_dlbratio,active,0,solu,dlbr
*get,_combtime,active,0,solu,comb
*get,_ssmode,active,0,solu,ssmm
*get,_ndofs,active,0,solu,ndof
*get,_sol_end_time,active,0,set,time
*if,_sol_end_time,eq,1.000000,then
/fclean				!clean distributed files
*endif
/com,--- Total number of nodes = %_numnode%
/com,--- Total number of elements = %_numelem%
/com,--- Element load balance ratio = %_dlbratio%
/com,--- Time to combine distributed files = %_combtime%
/com,--- Sparse memory mode = %_ssmode%
/com,--- Number of DOF = %_ndofs%
/wb,file,end               ! done with WB generated input
