/batch
/config,noeldb,1     ! force off writing results to database
*get,_wallstrt,active,,time,wall
! ANSYS input file written by Workbench version 2022 R1
! File used for geometry attach: C:\Users\Dharshan K\AppData\Local\Temp\WB_Dharshan K_12616_2\wbnew_files\dp0\SYS\DM\SYS.scdoc
/title,wbnew--Static Structural (A5)
! ****** Begin Custom Load Command Snippet ******
/COM, ACT Extensions:
/COM,     LSDYNA, 2021.1
/COM,     5f463412-bd3e-484b-87e7-cbc0a665e474, wbex
/COM,
! ****** End   Custom Load Command Snippet ******
*DIM,_wb_ProjectScratch_dir,string,248
_wb_ProjectScratch_dir(1) = 'C:\Users\Dharshan K\AppData\Local\Temp\WB_Dharshan K_12616_2\_ProjectScratch\ScrAEE9\'
*DIM,_wb_SolverFiles_dir,string,248
_wb_SolverFiles_dir(1) = 'C:\Users\Dharshan K\AppData\Local\Temp\WB_Dharshan K_12616_2\wbnew_files\dp0\SYS\MECH\'
*DIM,_wb_userfiles_dir,string,248
_wb_userfiles_dir(1) = 'C:\Users\Dharshan K\AppData\Local\Temp\WB_Dharshan K_12616_2\wbnew_files\user_files\'
/com,--- Data in consistent MKS units. See Solving Units in the help system for more information.
/units,MKS
/nopr
/wb,file,start              !  signify a WB generated input file
/prep7
! Turn off shape checking because checks already performed inside WB mesher.
! See help system for more information.
SHPP,OFF,,NOWARN
/nolist
etcon,set             ! allow ANSYS to choose best KEYOP's for 180x elements, resets any applicable keyopt to MAPDL defaults
/com,*********** Nodes for the whole assembly ***********
nblock,3,,20860
(1i9,3e20.9e3)
        1    -1.144569877E-03     6.291269398E-02    -3.692307692E-02
        2    -1.144569877E-03     6.291269398E-02    -3.384615385E-02
        3    -1.144569877E-03     6.291269398E-02    -3.076923077E-02
        4    -1.144569877E-03     6.291269398E-02    -2.769230769E-02
        5    -1.144569877E-03     6.291269398E-02    -2.461538462E-02
        6    -1.144569877E-03     6.291269398E-02    -2.153846154E-02
        7    -1.144569877E-03     6.291269398E-02    -1.846153846E-02
        8    -1.144569877E-03     6.291269398E-02    -1.538461538E-02
        9    -1.144569877E-03     6.291269398E-02    -1.230769231E-02
       10    -1.144569877E-03     6.291269398E-02    -9.230769231E-03
       11    -1.144569877E-03     6.291269398E-02    -6.153846154E-03
       12    -1.144569877E-03     6.291269398E-02    -3.076923077E-03
       13    -1.144569877E-03     6.291269398E-02     0.000000000E+00
       14    -1.144569877E-03     6.291269398E-02     3.076923077E-03
       15    -1.144569877E-03     6.291269398E-02     6.153846154E-03
       16    -1.144569877E-03     6.291269398E-02     9.230769231E-03
       17    -1.144569877E-03     6.291269398E-02     1.230769231E-02
       18    -1.144569877E-03     6.291269398E-02     1.538461538E-02
       19    -1.144569877E-03     6.291269398E-02     1.846153846E-02
       20    -1.144569877E-03     6.291269398E-02     2.153846154E-02
! ... 18945 like lines cut
/wb,elem,start            !  set before creation of elements
/com,*********** Elements for Body 1 "Part1\PartBody/Hole.1" ***********
et,1,187
eblock,19,solid,,2932
(19i9)
        1        1        1        1        0        0        0        0       10        0     1223     6677     6702     6921     6729    10770    10918    10777    10772
    10913    11004
        1        1        1        1        0        0        0        0       10        0     1224     6640     6921     6754     6899    10524    11114    10521    10523
    11595    11113
        1        1        1        1        0        0        0        0       10        0     1225     6396     6640     6921     6754     9216    10524     9219     9218
    10521    11114
        1        1        1        1        0        0        0        0       10        0     1226     6677     6754     6921     6899    10774    11114    10777    10776
    11113    11595
        1        1        1        1        0        0        0        0       10        0     1227     6677     6729     6921     6754    10772    11004    10777    10774
    11003    11114
        1        1        1        1        0        0        0        0       10        0     1228     6193     6921     6702     6729     8156    10918     8154     8155
    11004    10913
        1        1        1        1        0        0        0        0       10        0     1229     6237     6921     6238     6899     8408     8414     8402     8406
    11595     8413
        1        1        1        1        0        0        0        0       10        0     1230     6237     6238     6921     6396     8402     8414     8408     8404
     8410     9219
        1        1        1        1        0        0        0        0       10        0     1231     6396     6921     6729     6754     9219    11004     9217     9218
    11114    11003
        1        1        1        1        0        0        0        0       10        0     1232     6393     6702     6921     6899     9196    10918     9201     9198
    10916    11595
! ... 5845 like lines cut
!Material Id = {0E2B7674-61D8-4DEF-A584-1DE2FDE60973}
/com,*********** Elements for Body 2 "Part2\PartBody/Hole.1" ***********
et,2,187
eblock,19,solid,,4117
(19i9)
        2        2        2        2        0        0        0        0       10        0     4155    12635    12731    12786    12765    18563    18942    18565    18564
    18941    18962
        2        2        2        2        0        0        0        0       10        0     4156    12635    12638    12786    12731    18558    18583    18565    18563
    18582    18942
        2        2        2        2        0        0        0        0       10        0     4157    12011    12786    12018    12638    15070    15108    15066    15069
    18583    15107
        2        2        2        2        0        0        0        0       10        0     4158    12018    12786    12635    12638    15108    18565    15106    15107
    18583    18558
        2        2        2        2        0        0        0        0       10        0     4159    12023    12786    12663    12765    15126    18713    15124    15125
    18962    18712
        2        2        2        2        0        0        0        0       10        0     4160    12489    12663    12786    12765    17756    18713    17763    17762
    18712    18962
        2        2        2        2        0        0        0        0       10        0     4161    12010    12786    12489    12663    15065    17763    15063    15064
    18713    17756
        2        2        2        2        0        0        0        0       10        0     4162    12489    12786    12720    12765    17763    18921    17761    17762
    18962    18920
        2        2        2        2        0        0        0        0       10        0     4163    12489    12786    12638    12720    17763    18583    17754    17761
    18921    18581
        2        2        2        2        0        0        0        0       10        0     4164    12023    12635    12786    12765    15122    18565    15126    15125
    18564    18962
! ... 8215 like lines cut
!Material Id = {581B8C41-5883-4BFA-A414-988EE7520719}
/com,*********** Elements for Body 3 "Part3\PartBody/Pad.1" ***********
et,3,186
keyo,3,2,1          ! set full integration on SOLID186
eblock,19,solid,,1222
(19i9)
        3        3        3        3        0        0        0        0       20        0        1       51      326      851      601      960      949      928      938
     1848     3059     3970     1849     4699     4640     4638     4677     1850     3060     4479     3971
        3        3        3        3        0        0        0        0       20        0        2       51      601      851      326       52      602      852      327
     1849     3970     3059     1848     1854     3974     3064     1853     1846     3968     4478     3057
        3        3        3        3        0        0        0        0       20        0        3       52      602      852      327       53      603      853      328
     1854     3974     3064     1853     1858     3977     3068     1857     1851     3972     4481     3062
        3        3        3        3        0        0        0        0       20        0        4       53      603      853      328       54      604      854      329
     1858     3977     3068     1857     1862     3980     3072     1861     1855     3975     4483     3066
        3        3        3        3        0        0        0        0       20        0        5       54      604      854      329       55      605      855      330
     1862     3980     3072     1861     1866     3983     3076     1865     1859     3978     4485     3070
        3        3        3        3        0        0        0        0       20        0        6       55      605      855      330       56      606      856      331
     1866     3983     3076     1865     1870     3986     3080     1869     1863     3981     4487     3074
        3        3        3        3        0        0        0        0       20        0        7       56      606      856      331       57      607      857      332
     1870     3986     3080     1869     1874     3989     3084     1873     1867     3984     4489     3078
        3        3        3        3        0        0        0        0       20        0        8       57      607      857      332       58      608      858      333
     1874     3989     3084     1873     1878     3992     3088     1877     1871     3987     4491     3082
        3        3        3        3        0        0        0        0       20        0        9       58      608      858      333       59      609      859      334
     1878     3992     3088     1877     1882     3995     3092     1881     1875     3990     4493     3086
        3        3        3        3        0        0        0        0       20        0       10       59      609      859      334       60      610      860      335
     1882     3995     3092     1881     1886     3998     3096     1885     1879     3993     4495     3090
! ... 2425 like lines cut
!Material Id = {45594001-E2F7-4A8F-8B14-8F1ACE89C231}
/wb,elem,end               !  done creating elements
/com,*********** Send User Defined Coordinate System(s) ***********
csys,0
toffst,273.15,  ! Temperature offset from absolute zero
/com,*********** Set Reference Temperature ***********
tref,22.
/wb,mat,start              !  starting to send materials
/com,*********** Send Materials ***********
MP,EX,1,200000000000,	! Pa
MP,NUXY,1,0.266,
MP,DENS,1,7860,	! kg m^-3
MP,ALPX,1,7.88860905221012e-31,	! C^-1
MP,C,1,7.88860905221012e-31,	! J kg^-1 C^-1
MP,KXX,1,7.88860905221012e-31,	! W m^-1 C^-1
MP,UVID,1,12680834-b295-4f37-a95a-83c57e5d8e05

MP,EX,2,200000000000,	! Pa
MP,NUXY,2,0.266,
MP,DENS,2,7860,	! kg m^-3
MP,ALPX,2,7.88860905221012e-31,	! C^-1
MP,C,2,7.88860905221012e-31,	! J kg^-1 C^-1
MP,KXX,2,7.88860905221012e-31,	! W m^-1 C^-1
MP,UVID,2,0d22bc0d-4de9-4ec6-b525-15821031e98a

MP,EX,3,200000000000,	! Pa
MP,NUXY,3,0.266,
MP,DENS,3,7860,	! kg m^-3
MP,ALPX,3,7.88860905221012e-31,	! C^-1
MP,C,3,7.88860905221012e-31,	! J kg^-1 C^-1
MP,KXX,3,7.88860905221012e-31,	! W m^-1 C^-1
MP,UVID,3,867d7524-c6af-4591-8132-fd942082e142

/wb,mat,end                !  done sending materials
!************************* Model Summary ********************
!Part1\PartBody/Hole.1,	Light Green,	matid,	1
!Part2\PartBody/Hole.1,	Fire Red,	matid,	2
!Part3\PartBody/Pad.1,	DS Yellow,	matid,	3
!************************* End Model Summary ********************
! get the diagonal of the bounding box. Needed later for other things
*get,_xmin,node,,mnloc,x
*get,_ymin,node,,mnloc,y
*get,_zmin,node,,mnloc,z
*get,_xmax,node,,mxloc,x
*get,_ymax,node,,mxloc,y
*get,_zmax,node,,mxloc,z
_ASMDIAG=(_xmax-_xmin)*(_xmax-_xmin)+(_ymax-_ymin)*(_ymax-_ymin)+(_zmax-_zmin)*(_zmax-_zmin)
_ASMDIAG=SQRT(_ASMDIAG)
/wb,contact,start          !  starting to send contact
/com,*********** Create Contact "No Separation - Part2\PartBody/Hole.1 To Part1\PartBody/Hole.1" ***********
/com,            Real Constant Set For Above Contact Is 5 & 4 
*set,tid,5
*set,cid,4
r,tid
r,cid
et,tid,170
et,cid,174
eblock,10,,,284
(15i9)
    12248        5        5        5        0    12222    12246    12280    12280    16374    16497    12280    16376
    12249        5        5        5        0    12206    12271    12285    12285    16243    16595    12285    16244
    12250        5        5        5        0    12229    12248    12230    12230    16415    16420    12230    16414
    12251        5        5        5        0    12198    12258    12224    12224    16176    16387    12224    16173
    12252        5        5        5        0    12196    12198    12224    12224    16151    16173    12224    16153
    12253        5        5        5        0    12196    12224    12225    12225    16153    16385    12225    16154
    12254        5        5        5        0    12202    12234    12266    12266    16208    16443    12266    16211
    12255        5        5        5        0    12210    12268    12217    12217    16280    16338    12217    16277
    12256        5        5        5        0    12207    12228    12200    12200    16248    16191    12200    16190
    12257        5        5        5        0    12212    12213    12271    12271    16296    16306    12271    16298
    12258        5        5        5        0    12194    12273    12274    12274    16136    16602    12274    16137
    12259        5        5        5        0    12193    12242    12223    12223    16127    16380    12223    16125
    12260        5        5        5        0    12197    12235    12262    12262    16164    16448    12262    16167
    12261        5        5        5        0    12205    12243    12233    12233    16233    16435    12233    16232
    12262        5        5        5        0    12213    12279    12221    12221    16308    16369    12221    16305
    12263        5        5        5        0    12223    12242    12240    12240    16380    16471    12240    16379
    12264        5        5        5        0    12194    12229    12273    12273    16133    16417    12273    16136
    12265        5        5        5        0    12193    12220    12203    12203    16124    16216    12203    16123
    12266        5        5        5        0    12252    12266    12263    12263    16519    16560    12263    16518
    12267        5        5        5        0    12197    12224    12258    12258    16163    16387    12258    16166
! ... 265 like lines cut
eblock,10,,,284
(15i9)
    12532        4        4        4        0    12222    12246    12280    12280    16374    16497    12280    16376
    12533        4        4        4        0    12206    12271    12285    12285    16243    16595    12285    16244
    12534        4        4        4        0    12229    12248    12230    12230    16415    16420    12230    16414
    12535        4        4        4        0    12198    12258    12224    12224    16176    16387    12224    16173
    12536        4        4        4        0    12196    12198    12224    12224    16151    16173    12224    16153
    12537        4        4        4        0    12196    12224    12225    12225    16153    16385    12225    16154
    12538        4        4        4        0    12202    12234    12266    12266    16208    16443    12266    16211
    12539        4        4        4        0    12210    12268    12217    12217    16280    16338    12217    16277
    12540        4        4        4        0    12207    12228    12200    12200    16248    16191    12200    16190
    12541        4        4        4        0    12212    12213    12271    12271    16296    16306    12271    16298
    12542        4        4        4        0    12194    12273    12274    12274    16136    16602    12274    16137
    12543        4        4        4        0    12193    12242    12223    12223    16127    16380    12223    16125
    12544        4        4        4        0    12197    12235    12262    12262    16164    16448    12262    16167
    12545        4        4        4        0    12205    12243    12233    12233    16233    16435    12233    16232
    12546        4        4        4        0    12213    12279    12221    12221    16308    16369    12221    16305
    12547        4        4        4        0    12223    12242    12240    12240    16380    16471    12240    16379
    12548        4        4        4        0    12194    12229    12273    12273    16133    16417    12273    16136
    12549        4        4        4        0    12193    12220    12203    12203    16124    16216    12203    16123
    12550        4        4        4        0    12252    12266    12263    12263    16519    16560    12263    16518
    12551        4        4        4        0    12197    12224    12258    12258    16163    16387    12258    16166
! ... 265 like lines cut
eblock,10,,,132
(15i9)
    12816        4        5        4        0     6516     6529     6542     6542     9859     9939     6542     9861
    12817        4        5        4        0     6526     6515     6538     6538     9849     9853     6538     9924
    12818        4        5        4        0     6208     6216     6284     6284     8242     8304     6284     8244
    12819        4        5        4        0     6514     6525     6531     6531     9838     9919     6531     9841
    12820        4        5        4        0     6515     6537     6520     6520     9852     9886     6520     9848
    12821        4        5        4        0     6514     6515     6526     6526     9837     9849     6526     9839
    12822        4        5        4        0     6517     6524     6540     6540     9866     9913     6540     9868
    12823        4        5        4        0     6525     6535     6539     6539     9920     9966     6539     9921
    12824        4        5        4        0     6523     6540     6524     6524     9907     9913     6524     9906
    12825        4        5        4        0     6522     6537     6530     6530     9901     9945     6530     9899
    12826        4        5        4        0     6517     6543     6527     6527     9869     9930     6527     9867
    12827        4        5        4        0     6520     6541     6538     6538     9888     9979     6538     9887
    12828        4        5        4        0     6520     6538     6515     6515     9887     9853     6515     9848
    12829        4        5        4        0     6514     6526     6535     6535     9839     9923     6535     9842
    12830        4        5        4        0     6516     6540     6523     6523     9860     9907     6523     9858
    12831        4        5        4        0     6102     6265     6120     6120     7671     7759     6120     7670
    12832        4        5        4        0     6515     6530     6537     6537     9851     9945     6537     9852
    12833        4        5        4        0     6514     6531     6547     6547     9841     9949     6547     9843
    12834        4        5        4        0     6514     6547     6528     6528     9843     9935     6528     9840
    12835        4        5        4        0     6515     6528     6530     6530     9850     9934     6530     9851
! ... 113 like lines cut
eblock,10,,,132
(15i9)
    12948        5        4        5        0     6516     6529     6542     6542     9859     9939     6542     9861
    12949        5        4        5        0     6526     6515     6538     6538     9849     9853     6538     9924
    12950        5        4        5        0     6208     6216     6284     6284     8242     8304     6284     8244
    12951        5        4        5        0     6514     6525     6531     6531     9838     9919     6531     9841
    12952        5        4        5        0     6515     6537     6520     6520     9852     9886     6520     9848
    12953        5        4        5        0     6514     6515     6526     6526     9837     9849     6526     9839
    12954        5        4        5        0     6517     6524     6540     6540     9866     9913     6540     9868
    12955        5        4        5        0     6525     6535     6539     6539     9920     9966     6539     9921
    12956        5        4        5        0     6523     6540     6524     6524     9907     9913     6524     9906
    12957        5        4        5        0     6522     6537     6530     6530     9901     9945     6530     9899
    12958        5        4        5        0     6517     6543     6527     6527     9869     9930     6527     9867
    12959        5        4        5        0     6520     6541     6538     6538     9888     9979     6538     9887
    12960        5        4        5        0     6520     6538     6515     6515     9887     9853     6515     9848
    12961        5        4        5        0     6514     6526     6535     6535     9839     9923     6535     9842
    12962        5        4        5        0     6516     6540     6523     6523     9860     9907     6523     9858
    12963        5        4        5        0     6102     6265     6120     6120     7671     7759     6120     7670
    12964        5        4        5        0     6515     6530     6537     6537     9851     9945     6537     9852
    12965        5        4        5        0     6514     6531     6547     6547     9841     9949     6547     9843
    12966        5        4        5        0     6514     6547     6528     6528     9843     9935     6528     9840
    12967        5        4        5        0     6515     6528     6530     6530     9850     9934     6530     9851
! ... 113 like lines cut
keyo,cid,8,2               ! auto create asymmetric contact (from Program Controlled setting)
keyo,cid,10,0              ! adjust contact stiffness each NR iteration (from Program Controlled setting)
keyo,cid,12,4              ! no separation always
keyo,cid,18,1              ! small sliding turned on by application
keyo,cid,2,0               ! augmented Lagrange (from Program Controlled setting)
keyo,cid,4,0               ! on Gauss point (from Program Controlled setting)
keyo,cid,9,1               ! ignore initial gaps/penetration
keyo,cid,7,0               ! No Prediction
rmod,tid,3,10.      ! FKN
rmod,tid,5,0.       ! ICONT
rmod,tid,6,0.       ! PINB
rmod,tid,10,0.      ! CNOF
rmod,tid,12,0.      ! FKT
rmod,tid,36,49      ! WB DSID
rmod,cid,3,10.      ! FKN
rmod,cid,5,0.       ! ICONT
rmod,cid,6,0.       ! PINB
rmod,cid,10,0.      ! CNOF
rmod,cid,12,0.      ! FKT
rmod,cid,36,49      ! WB DSID
/com,*********** Create Contact "No Separation - Part3\PartBody/Pad.1 To Part1\PartBody/Hole.1" ***********
/com,            Real Constant Set For Above Contact Is 7 & 6 
*set,tid,7
*set,cid,6
r,tid
r,cid
et,tid,170
et,cid,174
eblock,10,,,572
(15i9)
    13080        7        7        7        0     1308     1334     1584     1283     5429     5481     5380     5379
    13081        7        7        7        0     1307     1344     1334     1308     5428     5480     5429     5427
    13082        7        7        7        0     1306     1354     1344     1307     5426     5509     5428     5425
    13083        7        7        7        0     1305     1364     1354     1306     5424     5528     5426     5423
    13084        7        7        7        0     1304     1374     1364     1305     5422     5547     5424     5421
    13085        7        7        7        0     1303     1384     1374     1304     5420     5566     5422     5419
    13086        7        7        7        0     1302     1394     1384     1303     5418     5585     5420     5417
    13087        7        7        7        0     1301     1404     1394     1302     5416     5604     5418     5415
    13088        7        7        7        0     1300     1414     1404     1301     5414     5623     5416     5413
    13089        7        7        7        0     1299     1424     1414     1300     5412     5642     5414     5411
    13090        7        7        7        0     1298     1434     1424     1299     5410     5661     5412     5409
    13091        7        7        7        0     1297     1444     1434     1298     5408     5680     5410     5407
    13092        7        7        7        0     1296     1454     1444     1297     5406     5699     5408     5405
    13093        7        7        7        0     1295     1464     1454     1296     5404     5718     5406     5403
    13094        7        7        7        0     1294     1474     1464     1295     5402     5737     5404     5401
    13095        7        7        7        0     1293     1484     1474     1294     5400     5756     5402     5399
    13096        7        7        7        0     1292     1494     1484     1293     5398     5775     5400     5397
    13097        7        7        7        0     1291     1504     1494     1292     5396     5794     5398     5395
    13098        7        7        7        0     1290     1514     1504     1291     5394     5813     5396     5393
    13099        7        7        7        0     1289     1524     1514     1290     5392     5832     5394     5391
! ... 553 like lines cut
eblock,10,,,572
(15i9)
    13652        6        6        6        0     1308     1334     1584     1283     5429     5481     5380     5379
    13653        6        6        6        0     1307     1344     1334     1308     5428     5480     5429     5427
    13654        6        6        6        0     1306     1354     1344     1307     5426     5509     5428     5425
    13655        6        6        6        0     1305     1364     1354     1306     5424     5528     5426     5423
    13656        6        6        6        0     1304     1374     1364     1305     5422     5547     5424     5421
    13657        6        6        6        0     1303     1384     1374     1304     5420     5566     5422     5419
    13658        6        6        6        0     1302     1394     1384     1303     5418     5585     5420     5417
    13659        6        6        6        0     1301     1404     1394     1302     5416     5604     5418     5415
    13660        6        6        6        0     1300     1414     1404     1301     5414     5623     5416     5413
    13661        6        6        6        0     1299     1424     1414     1300     5412     5642     5414     5411
    13662        6        6        6        0     1298     1434     1424     1299     5410     5661     5412     5409
    13663        6        6        6        0     1297     1444     1434     1298     5408     5680     5410     5407
    13664        6        6        6        0     1296     1454     1444     1297     5406     5699     5408     5405
    13665        6        6        6        0     1295     1464     1454     1296     5404     5718     5406     5403
    13666        6        6        6        0     1294     1474     1464     1295     5402     5737     5404     5401
    13667        6        6        6        0     1293     1484     1474     1294     5400     5756     5402     5399
    13668        6        6        6        0     1292     1494     1484     1293     5398     5775     5400     5397
    13669        6        6        6        0     1291     1504     1494     1292     5396     5794     5398     5395
    13670        6        6        6        0     1290     1514     1504     1291     5394     5813     5396     5393
    13671        6        6        6        0     1289     1524     1514     1290     5392     5832     5394     5391
! ... 553 like lines cut
eblock,10,,,56
(15i9)
    14224        6        7        6        0     5966     5965     6375     6375     6936     6938     6375     6943
    14225        6        7        6        0     5965     5963     5972     5972     6922     6923     5972     6937
    14226        6        7        6        0     5967     5966     6380     6380     6942     6944     6380     6951
    14227        6        7        6        0     5968     5967     6376     6376     6949     6950     6376     6957
    14228        6        7        6        0     5969     5968     6376     6376     6956     6957     6376     6963
    14229        6        7        6        0     5964     5969     5980     5980     6929     6962     5980     6930
    14230        6        7        6        0     5974     5973     5979     5979     6992     6993     5979     6998
    14231        6        7        6        0     5975     5974     6377     6377     6997     6999     6377     7005
    14232        6        7        6        0     5976     5975     6378     6378     7004     7006     6378     7012
    14233        6        7        6        0     5977     5976     6378     6378     7011     7012     6378     7019
    14234        6        7        6        0     5978     5977     6379     6379     7017     7020     6379     7026
    14235        6        7        6        0     5970     5978     5971     5971     6969     6974     5971     6968
    14236        6        7        6        0     5972     5971     6379     6379     6973     6977     6379     6986
    14237        6        7        6        0     5979     5980     6377     6377     7029     7041     6377     7032
    14238        6        7        6        0     5965     5972     6375     6375     6937     6985     6375     6938
    14239        6        7        6        0     6380     5966     6375     6375     6944     6943     6375     9093
    14240        6        7        6        0     6376     5967     6380     6380     6950     6951     6380     9099
    14241        6        7        6        0     5969     6376     6377     6377     6963     9097     6377     6964
    14242        6        7        6        0     5980     5969     6377     6377     6962     6964     6377     7041
    14243        6        7        6        0     5974     5979     6377     6377     6998     7032     6377     6999
! ... 37 like lines cut
eblock,10,,,56
(15i9)
    14280        7        6        7        0     5966     5965     6375     6375     6936     6938     6375     6943
    14281        7        6        7        0     5965     5963     5972     5972     6922     6923     5972     6937
    14282        7        6        7        0     5967     5966     6380     6380     6942     6944     6380     6951
    14283        7        6        7        0     5968     5967     6376     6376     6949     6950     6376     6957
    14284        7        6        7        0     5969     5968     6376     6376     6956     6957     6376     6963
    14285        7        6        7        0     5964     5969     5980     5980     6929     6962     5980     6930
    14286        7        6        7        0     5974     5973     5979     5979     6992     6993     5979     6998
    14287        7        6        7        0     5975     5974     6377     6377     6997     6999     6377     7005
    14288        7        6        7        0     5976     5975     6378     6378     7004     7006     6378     7012
    14289        7        6        7        0     5977     5976     6378     6378     7011     7012     6378     7019
    14290        7        6        7        0     5978     5977     6379     6379     7017     7020     6379     7026
    14291        7        6        7        0     5970     5978     5971     5971     6969     6974     5971     6968
    14292        7        6        7        0     5972     5971     6379     6379     6973     6977     6379     6986
    14293        7        6        7        0     5979     5980     6377     6377     7029     7041     6377     7032
    14294        7        6        7        0     5965     5972     6375     6375     6937     6985     6375     6938
    14295        7        6        7        0     6380     5966     6375     6375     6944     6943     6375     9093
    14296        7        6        7        0     6376     5967     6380     6380     6950     6951     6380     9099
    14297        7        6        7        0     5969     6376     6377     6377     6963     9097     6377     6964
    14298        7        6        7        0     5980     5969     6377     6377     6962     6964     6377     7041
    14299        7        6        7        0     5974     5979     6377     6377     6998     7032     6377     6999
! ... 37 like lines cut
keyo,cid,8,2               ! auto create asymmetric contact (from Program Controlled setting)
keyo,cid,10,0              ! adjust contact stiffness each NR iteration (from Program Controlled setting)
keyo,cid,12,4              ! no separation always
keyo,cid,18,1              ! small sliding turned on by application
keyo,cid,2,0               ! augmented Lagrange (from Program Controlled setting)
keyo,cid,4,0               ! on Gauss point (from Program Controlled setting)
keyo,cid,9,1               ! ignore initial gaps/penetration
keyo,cid,7,0               ! No Prediction
rmod,tid,3,10.      ! FKN
rmod,tid,5,0.       ! ICONT
rmod,tid,6,0.       ! PINB
rmod,tid,10,0.      ! CNOF
rmod,tid,12,0.      ! FKT
rmod,tid,36,52      ! WB DSID
rmod,cid,3,10.      ! FKN
rmod,cid,5,0.       ! ICONT
rmod,cid,6,0.       ! PINB
rmod,cid,10,0.      ! CNOF
rmod,cid,12,0.      ! FKT
rmod,cid,36,52      ! WB DSID
/com,*********** Create Contact "No Separation - Part3\PartBody/Pad.1 To Part2\PartBody/Hole.1" ***********
/com,            Real Constant Set For Above Contact Is 9 & 8 
*set,tid,9
*set,cid,8
r,tid
r,cid
et,tid,170
et,cid,174
eblock,10,,,572
(15i9)
    14336        9        9        9        0     1284     1022     1021     1020     4843     4840     4838     4839
    14337        9        9        9        0     1285     1032     1022     1284     4864     4842     4843     5381
    14338        9        9        9        0     1286     1042     1032     1285     4885     4863     4864     5383
    14339        9        9        9        0     1287     1052     1042     1286     4906     4884     4885     5385
    14340        9        9        9        0     1288     1062     1052     1287     4927     4905     4906     5387
    14341        9        9        9        0     1289     1072     1062     1288     4948     4926     4927     5389
    14342        9        9        9        0     1290     1082     1072     1289     4969     4947     4948     5391
    14343        9        9        9        0     1291     1092     1082     1290     4990     4968     4969     5393
    14344        9        9        9        0     1292     1102     1092     1291     5011     4989     4990     5395
    14345        9        9        9        0     1293     1112     1102     1292     5032     5010     5011     5397
    14346        9        9        9        0     1294     1122     1112     1293     5053     5031     5032     5399
    14347        9        9        9        0     1295     1132     1122     1294     5074     5052     5053     5401
    14348        9        9        9        0     1296     1142     1132     1295     5095     5073     5074     5403
    14349        9        9        9        0     1297     1152     1142     1296     5116     5094     5095     5405
    14350        9        9        9        0     1298     1162     1152     1297     5137     5115     5116     5407
    14351        9        9        9        0     1299     1172     1162     1298     5158     5136     5137     5409
    14352        9        9        9        0     1300     1182     1172     1299     5179     5157     5158     5411
    14353        9        9        9        0     1301     1192     1182     1300     5200     5178     5179     5413
    14354        9        9        9        0     1302     1202     1192     1301     5221     5199     5200     5415
    14355        9        9        9        0     1303     1212     1202     1302     5242     5220     5221     5417
! ... 553 like lines cut
eblock,10,,,572
(15i9)
    14908        8        8        8        0     1284     1022     1021     1020     4843     4840     4838     4839
    14909        8        8        8        0     1285     1032     1022     1284     4864     4842     4843     5381
    14910        8        8        8        0     1286     1042     1032     1285     4885     4863     4864     5383
    14911        8        8        8        0     1287     1052     1042     1286     4906     4884     4885     5385
    14912        8        8        8        0     1288     1062     1052     1287     4927     4905     4906     5387
    14913        8        8        8        0     1289     1072     1062     1288     4948     4926     4927     5389
    14914        8        8        8        0     1290     1082     1072     1289     4969     4947     4948     5391
    14915        8        8        8        0     1291     1092     1082     1290     4990     4968     4969     5393
    14916        8        8        8        0     1292     1102     1092     1291     5011     4989     4990     5395
    14917        8        8        8        0     1293     1112     1102     1292     5032     5010     5011     5397
    14918        8        8        8        0     1294     1122     1112     1293     5053     5031     5032     5399
    14919        8        8        8        0     1295     1132     1122     1294     5074     5052     5053     5401
    14920        8        8        8        0     1296     1142     1132     1295     5095     5073     5074     5403
    14921        8        8        8        0     1297     1152     1142     1296     5116     5094     5095     5405
    14922        8        8        8        0     1298     1162     1152     1297     5137     5115     5116     5407
    14923        8        8        8        0     1299     1172     1162     1298     5158     5136     5137     5409
    14924        8        8        8        0     1300     1182     1172     1299     5179     5157     5158     5411
    14925        8        8        8        0     1301     1192     1182     1300     5200     5178     5179     5413
    14926        8        8        8        0     1302     1202     1192     1301     5221     5199     5200     5415
    14927        8        8        8        0     1303     1212     1202     1302     5242     5220     5221     5417
! ... 553 like lines cut
eblock,10,,,152
(15i9)
    15480        8        9        8        0    11624    11625    12053    12053    12950    12961    12053    12953
    15481        8        9        8        0    11623    12063    12052    12052    12945    15285    12052    12944
    15482        8        9        8        0    11597    11612    11599    11599    12788    12800    11599    12787
    15483        8        9        8        0    11611    11610    12051    12051    12863    12866    12051    12873
    15484        8        9        8        0    11622    11623    12052    12052    12933    12944    12052    12936
    15485        8        9        8        0    11609    11608    12050    12050    12845    12849    12050    12857
    15486        8        9        8        0    11613    11622    11621    11621    12884    12927    11621    12883
    15487        8        9        8        0    11612    11611    12051    12051    12870    12873    12051    12879
    15488        8        9        8        0    11610    11609    12062    12062    12854    12858    12062    12867
    15489        8        9        8        0    11608    11607    11614    11614    12840    12841    11614    12846
    15490        8        9        8        0    11625    11626    12057    12057    12959    12968    12057    12962
    15491        8        9        8        0    11626    11598    11606    11606    12795    12794    11606    12835
    15492        8        9        8        0    11600    11599    12054    12054    12799    12801    12054    12806
    15493        8        9        8        0    11601    11600    12054    12054    12805    12806    12054    12811
    15494        8        9        8        0    11602    11601    12055    12055    12810    12812    12055    12815
    15495        8        9        8        0    11603    11602    12055    12055    12814    12815    12055    12819
    15496        8        9        8        0    11604    11603    12056    12056    12818    12820    12056    12825
    15497        8        9        8        0    11605    11604    12057    12057    12824    12826    12057    12831
    15498        8        9        8        0    11606    11605    12057    12057    12830    12831    12057    12836
    15499        8        9        8        0    11614    11615    12058    12058    12888    12895    12058    12890
! ... 133 like lines cut
eblock,10,,,152
(15i9)
    15632        9        8        9        0    11624    11625    12053    12053    12950    12961    12053    12953
    15633        9        8        9        0    11623    12063    12052    12052    12945    15285    12052    12944
    15634        9        8        9        0    11597    11612    11599    11599    12788    12800    11599    12787
    15635        9        8        9        0    11611    11610    12051    12051    12863    12866    12051    12873
    15636        9        8        9        0    11622    11623    12052    12052    12933    12944    12052    12936
    15637        9        8        9        0    11609    11608    12050    12050    12845    12849    12050    12857
    15638        9        8        9        0    11613    11622    11621    11621    12884    12927    11621    12883
    15639        9        8        9        0    11612    11611    12051    12051    12870    12873    12051    12879
    15640        9        8        9        0    11610    11609    12062    12062    12854    12858    12062    12867
    15641        9        8        9        0    11608    11607    11614    11614    12840    12841    11614    12846
    15642        9        8        9        0    11625    11626    12057    12057    12959    12968    12057    12962
    15643        9        8        9        0    11626    11598    11606    11606    12795    12794    11606    12835
    15644        9        8        9        0    11600    11599    12054    12054    12799    12801    12054    12806
    15645        9        8        9        0    11601    11600    12054    12054    12805    12806    12054    12811
    15646        9        8        9        0    11602    11601    12055    12055    12810    12812    12055    12815
    15647        9        8        9        0    11603    11602    12055    12055    12814    12815    12055    12819
    15648        9        8        9        0    11604    11603    12056    12056    12818    12820    12056    12825
    15649        9        8        9        0    11605    11604    12057    12057    12824    12826    12057    12831
    15650        9        8        9        0    11606    11605    12057    12057    12830    12831    12057    12836
    15651        9        8        9        0    11614    11615    12058    12058    12888    12895    12058    12890
! ... 133 like lines cut
keyo,cid,8,2               ! auto create asymmetric contact (from Program Controlled setting)
keyo,cid,10,0              ! adjust contact stiffness each NR iteration (from Program Controlled setting)
keyo,cid,12,4              ! no separation always
keyo,cid,18,1              ! small sliding turned on by application
keyo,cid,2,0               ! augmented Lagrange (from Program Controlled setting)
keyo,cid,4,0               ! on Gauss point (from Program Controlled setting)
keyo,cid,9,1               ! ignore initial gaps/penetration
keyo,cid,7,0               ! No Prediction
rmod,tid,3,10.      ! FKN
rmod,tid,5,0.       ! ICONT
rmod,tid,6,0.       ! PINB
rmod,tid,10,0.      ! CNOF
rmod,tid,12,0.      ! FKT
rmod,tid,36,56      ! WB DSID
rmod,cid,3,10.      ! FKN
rmod,cid,5,0.       ! ICONT
rmod,cid,6,0.       ! PINB
rmod,cid,10,0.      ! CNOF
rmod,cid,12,0.      ! FKT
rmod,cid,36,56      ! WB DSID
nsel,all
esel,all
/wb,contact,end            !  done creating contacts
/golist
/wb,load,start             !  starting to send loads
/com,*********** Fixed Supports ***********
CMBLOCK,_FIXEDSU,NODE,       85
(8i10)
      6019      6049      6050      6051      6144      6145      6146      6147
      6148      6149      6150      6151      6152      6153      6154      6155
      6156      6157      6158      6159      6160      6161      6162      6163
      6732      6733      6734      6735      7271      7272      7411      7413
      7414      7416      7418      7420      7422      7902      7903      7905
      7907      7909      7912      7913      7914      7917      7918      7920
      7921      7924      7925      7927      7929      7930      7933      7934
      7936      7939      7941      7942      7944      7946      7948      7951
      7952      7953      7955      7956      7959      7960      7963      7964
      7966      7968      7969      7972      7973      7976      7979      7981
      7984      7989     11008     11011     11014
cmsel,s,_FIXEDSU
d,all,all
nsel,all
/com,*********** Define Pressure Vector Using Surface Effect Elements ***********
local,12,0,0.,0.,0.,0.,0.,0.
csys,0
et,10,154
eblock,10,,,126
(15i9)
    15784       10       10       10       12    12431    12440    12452    12452    17425    17493    12452    17427
    15785       10       10       10       12    12434    12442    12452    12452    17443    17506    12452    17446
    15786       10       10       10       12    12428    12465    12430    12430    17397    17417    12430    17392
    15787       10       10       10       12    12435    12467    12450    12450    17456    17550    12450    17455
    15788       10       10       10       12    12428    12436    12465    12465    17394    17467    12465    17397
    15789       10       10       10       12    12431    12445    12435    12435    17426    17453    12435    17424
    15790       10       10       10       12    12443    12448    12466    12466    17511    17539    12466    17514
    15791       10       10       10       12    12434    12449    12442    12442    17444    17505    12442    17443
    15792       10       10       10       12    12431    12460    12445    12445    17428    17523    12445    17426
    15793       10       10       10       12    11824    11837    11838    11838    14110    14169    11838    14111
    15794       10       10       10       12    12441    12464    12430    12430    17501    17416    12430    17413
    15795       10       10       10       12    12444    12461    12457    12457    17519    17578    12457    17518
    15796       10       10       10       12    12432    12448    12443    12443    17432    17511    12443    17431
    15797       10       10       10       12    12438    12464    12455    12455    17483    17570    12455    17481
    15798       10       10       10       12    12433    12453    12440    12440    17439    17494    12440    17438
    15799       10       10       10       12    12435    12450    12439    12439    17455    17488    12439    17452
    15800       10       10       10       12    12430    12438    12451    12451    17412    17480    12451    17415
    15801       10       10       10       12    12435    12445    12446    12446    17453    17522    12446    17454
    15802       10       10       10       12    12429    12437    12433    12433    17404    17437    12433    17402
    15803       10       10       10       12    12429    12440    12431    12431    17406    17425    12431    17401
! ... 107 like lines cut
esel,s,type,,10
keyop,10,2,1                ! Apply load in local coordinate system
keyop,10,7,0                ! Use deformed area for application of load
esel,all
/gst,on,on
fini
*get,_numnode,node,0,count
*get,_numelem,elem,0,count
*get, _MAXELEMNUM, elem, 0, NUM, MAX
*get, _MAXNODENUM, node, 0, NUM, MAX
*get, _MAXELEMTYPE, etyp, 0, NUM, MAX
*get, _MAXREALCONST, real, 0, NUM, MAX
/go
/wb,load,end               !  done creating loads
/com,--- Number of total nodes = %_numnode%
/com,--- Number of contact elements = 3662
/com,--- Number of spring elements = 0
/com,--- Number of bearing elements = 0
/com,--- Number of solid elements = 8271
/com,--- Number of condensed parts = 0
/com,--- Number of total elements = %_numelem%
*get,_wallbsol,active,,time,wall
/com,****************************************************************************
/com,*************************    SOLUTION       ********************************
/com,****************************************************************************
/solu
antype,0                   ! static analysis
_thickRatio=  1     ! Ratio of thick parts in the model
eqsl,pcg,1e-8,,,,,,1
cntr,print,1               ! print out contact info and also make no initial contact an error
dmpoption,emat,no             ! Don't combine emat file for DANSYS
dmpoption,esav,no             ! Don't combine esav file for DANSYS
nldiag,cont,iter           ! print out contact info each equilibrium iteration
rescontrol,,none                 ! Do not keep any restart files
/com,****************************************************
/com,******************* SOLVE FOR LS 1 OF 1 ****************
esel,s,type,,10
nsle
sfe,all,1,pres,1,0.
sfe,all,2,pres,1,1000000.
sfe,all,3,pres,1,0.
nsel,all
esel,all
/nopr
/gopr
nsub,1,1,1
time,1.
outres,erase
outres,all,none
outres,nsol,all,
outres,rsol,all
outres,eangl,all
outres,etmp,all
outres,veng,all
outres,strs,all,
outres,epel,all,
outres,eppl,all,
outres,cont,all,
! *********** WB SOLVE COMMAND ***********
! check interactive state
*get,ANSINTER_,active,,int
*if,ANSINTER_,ne,0,then
/eof
*endif
solve
/com *************** Write FE CONNECTORS ********* 
CEWRITE,file,ce,,INTE
/com,****************************************************
/com,*************** FINISHED SOLVE FOR LS 1 *************
*get,_wallasol,active,,time,wall
/nopr
*get,_numnode,node,0,count
*get,_numelem,elem,0,count
*get, _MAXELEMNUM, elem, 0, NUM, MAX
*get, _MAXNODENUM, node, 0, NUM, MAX,,,INTERNAL
*get, _MAXELEMTYPE, etyp, 0, NUM, MAX
*get, _MAXREALCONST, real, 0, NUM, MAX
/gopr
*get,_PCGITER,active,,solu,cgiter
/post1
xmlo,ENCODING,ISO-8859-1
xmlo,parm
/xml,parm,xml
fini
/gopr
*get,_walldone,active,,time,wall
_preptime=(_wallbsol-_wallstrt)*3600
_solvtime=(_wallasol-_wallbsol)*3600
_posttime=(_walldone-_wallasol)*3600
_totaltim=(_walldone-_wallstrt)*3600
*get,_dlbratio,active,0,solu,dlbr
*get,_combtime,active,0,solu,comb
*get,_ssmode,active,0,solu,ssmm
*get,_ndofs,active,0,solu,ndof
*get,_sol_end_time,active,0,set,time
*if,_sol_end_time,eq,1.000000,then
/fclean				!clean distributed files
*endif
/com,--- Total number of nodes = %_numnode%
/com,--- Total number of elements = %_numelem%
/com,--- Element load balance ratio = %_dlbratio%
/com,--- Time to combine distributed files = %_combtime%
/com,--- Sparse memory mode = %_ssmode%
/com,--- Number of DOF = %_ndofs%
/wb,file,end               ! done with WB generated input
