/batch
/config,noeldb,1     ! force off writing results to database
*get,_wallstrt,active,,time,wall
! ANSYS input file written by Workbench version 2022 R1
! File used for geometry attach: C:\Users\Dharshan K\AppData\Local\Temp\WB_Dharshan K_7352_2\wbnew_files\dp0\SYS\DM\SYS.scdoc
/title,wbnew--Static Structural (A5)
! ****** Begin Custom Load Command Snippet ******
/COM, ACT Extensions:
/COM,     LSDYNA, 2021.1
/COM,     5f463412-bd3e-484b-87e7-cbc0a665e474, wbex
/COM,
! ****** End   Custom Load Command Snippet ******
*DIM,_wb_ProjectScratch_dir,string,248
_wb_ProjectScratch_dir(1) = 'C:\Users\Dharshan K\AppData\Local\Temp\WB_Dharshan K_7352_2\_ProjectScratch\Scr7D41\'
*DIM,_wb_SolverFiles_dir,string,248
_wb_SolverFiles_dir(1) = 'C:\Users\Dharshan K\AppData\Local\Temp\WB_Dharshan K_7352_2\wbnew_files\dp0\SYS\MECH\'
*DIM,_wb_userfiles_dir,string,248
_wb_userfiles_dir(1) = 'C:\Users\Dharshan K\AppData\Local\Temp\WB_Dharshan K_7352_2\wbnew_files\user_files\'
/com,--- Data in consistent MKS units. See Solving Units in the help system for more information.
/units,MKS
/nopr
/wb,file,start              !  signify a WB generated input file
/prep7
! Turn off shape checking because checks already performed inside WB mesher.
! See help system for more information.
SHPP,OFF,,NOWARN
/nolist
etcon,set             ! allow ANSYS to choose best KEYOP's for 180x elements, resets any applicable keyopt to MAPDL defaults
/com,*********** Nodes for the whole assembly ***********
nblock,3,,716
(1i9,3e20.9e3)
        1     1.904761905E-01     1.000000000E-02     1.200000000E-01
        2     3.809523810E-01     1.000000000E-02     1.200000000E-01
        3     5.714285714E-01     1.000000000E-02     1.200000000E-01
        4     7.619047619E-01     1.000000000E-02     1.200000000E-01
        5     9.523809524E-01     1.000000000E-02     1.200000000E-01
        6     1.142857143E+00     1.000000000E-02     1.200000000E-01
        7     1.333333333E+00     1.000000000E-02     1.200000000E-01
        8     1.523809524E+00     1.000000000E-02     1.200000000E-01
        9     1.714285714E+00     1.000000000E-02     1.200000000E-01
       10     1.904761905E+00     1.000000000E-02     1.200000000E-01
       11     2.095238095E+00     1.000000000E-02     1.200000000E-01
       12     2.285714286E+00     1.000000000E-02     1.200000000E-01
       13     2.476190476E+00     1.000000000E-02     1.200000000E-01
       14     2.666666667E+00     1.000000000E-02     1.200000000E-01
       15     2.857142857E+00     1.000000000E-02     1.200000000E-01
       16     3.047619048E+00     1.000000000E-02     1.200000000E-01
       17     3.238095238E+00     1.000000000E-02     1.200000000E-01
       18     3.428571429E+00     1.000000000E-02     1.200000000E-01
       19     3.619047619E+00     1.000000000E-02     1.200000000E-01
       20     3.809523810E+00     1.000000000E-02     1.200000000E-01
! ... 632 like lines cut
/wb,elem,start            !  set before creation of elements
/com,*********** Elements for Body 1 "SYS\PartBody/Pad.1" ***********
et,1,186
keyo,1,2,1          ! set full integration on SOLID186
eblock,19,solid,,84
(19i9)
        1        1        1        1        0        0        0        0       20        0        1        1      151      194      195       40      171      193      196
      203      584      649      204      359      624      648      360      200      583      647      650
        1        1        1        1        0        0        0        0       20        0        2        1      195      194      151       41       62       84       83
      204      649      584      203      362      425      468      363      201      427      470      469
        1        1        1        1        0        0        0        0       20        0        3        1        2      152      151       40       39      172      171
      199      209      582      203      355      357      623      359      200      206      586      583
        1        1        1        1        0        0        0        0       20        0        4        1      151      152        2       41       83       82       42
      203      582      209      199      363      466      366      361      201      469      467      207
        1        1        1        1        0        0        0        0       20        0        5        2        3      153      152       39       38      173      172
      205      214      585      209      352      354      625      357      206      211      588      586
        1        1        1        1        0        0        0        0       20        0        6        2      152      153        3       42       82       81       43
      209      585      214      205      366      464      369      365      207      467      465      212
        1        1        1        1        0        0        0        0       20        0        7        3        4      154      153       38       37      174      173
      210      219      587      214      349      351      626      354      211      216      590      588
        1        1        1        1        0        0        0        0       20        0        8        3      153      154        4       43       81       80       44
      214      587      219      210      369      462      372      368      212      465      463      217
        1        1        1        1        0        0        0        0       20        0        9        4        5      155      154       37       36      175      174
      215      224      589      219      346      348      627      351      216      221      592      590
        1        1        1        1        0        0        0        0       20        0       10        4      154      155        5       44       80       79       45
      219      589      224      215      372      460      375      371      217      463      461      222
! ... 149 like lines cut
!Material Id = {B8331C68-599D-421E-9B45-D2CABC0BAEAF}
/wb,elem,end               !  done creating elements
/com,*********** Send User Defined Coordinate System(s) ***********
csys,0
toffst,273.15,  ! Temperature offset from absolute zero
/com,*********** Set Reference Temperature ***********
tref,22.
/wb,mat,start              !  starting to send materials
/com,*********** Send Materials ***********
Temperature = 'TEMP' ! Temperature
MP,DENS,1,7850,	! kg m^-3
MP,ALPX,1,1.2e-05,	! C^-1
MP,C,1,434,	! J kg^-1 C^-1
MP,KXX,1,60.5,	! W m^-1 C^-1
MP,RSVX,1,1.7e-07,	! kg m^3 A^-2 s^-3
MP,EX,1,200000000000,	! Pa
MP,NUXY,1,0.3,
MP,MURX,1,10000,
MP,UVID,1,21aa0128-770c-4af6-8784-a44934772f83
MP,UMID,1,59002a79-71c2-428e-906b-55d7dbee100e

/wb,mat,end                !  done sending materials
!************************* Model Summary ********************
!SYS\PartBody/Pad.1,	Structural Steel,	matid,	1
!************************* End Model Summary ********************
! get the diagonal of the bounding box. Needed later for other things
*get,_xmin,node,,mnloc,x
*get,_ymin,node,,mnloc,y
*get,_zmin,node,,mnloc,z
*get,_xmax,node,,mxloc,x
*get,_ymax,node,,mxloc,y
*get,_zmax,node,,mxloc,z
_ASMDIAG=(_xmax-_xmin)*(_xmax-_xmin)+(_ymax-_ymin)*(_ymax-_ymin)+(_zmax-_zmin)*(_zmax-_zmin)
_ASMDIAG=SQRT(_ASMDIAG)
/wb,contact,start          !  starting to send contact
/wb,contact,end            !  done creating contacts
/golist
/wb,load,start             !  starting to send loads
/com,*********** Fixed Supports ***********
CMBLOCK,_FIXEDSU,NODE,        5
(8i10)
        85       147       148       472       576
cmsel,s,_FIXEDSU
d,all,all
nsel,all
/com,******* Constant Zero Displacement Y *******
CMBLOCK,_DISPZEROUY,NODE,        5
(8i10)
       106       149       150       513       579
cmsel,s,_DISPZEROUY
d,all,uy,0
nsel,all
/com,******* Constant Zero Displacement Z *******
CMBLOCK,_DISPZEROUZ,NODE,        5
(8i10)
       106       149       150       513       579
cmsel,s,_DISPZEROUZ
d,all,uz,0
nsel,all
/com,*********** Define Force Using Surface Effect Elements ***********
local,12,0,0.,0.,0.,0.,0.,0.
csys,0
et,2,154
eblock,10,,,42
(15i9)
      261        2        2        2       12      171      151      194      193      583      584      647      624
      262        2        2        2       12      172      152      151      171      586      582      583      623
      263        2        2        2       12      173      153      152      172      588      585      586      625
      264        2        2        2       12      174      154      153      173      590      587      588      626
      265        2        2        2       12      175      155      154      174      592      589      590      627
      266        2        2        2       12      176      156      155      175      594      591      592      628
      267        2        2        2       12      177      157      156      176      596      593      594      629
      268        2        2        2       12      178      158      157      177      598      595      596      630
      269        2        2        2       12      179      159      158      178      600      597      598      631
      270        2        2        2       12      180      160      159      179      602      599      600      632
      271        2        2        2       12      181      161      160      180      604      601      602      633
      272        2        2        2       12      182      162      161      181      606      603      604      634
      273        2        2        2       12      183      163      162      182      608      605      606      635
      274        2        2        2       12      184      164      163      183      610      607      608      636
      275        2        2        2       12      185      165      164      184      612      609      610      637
      276        2        2        2       12      186      166      165      185      614      611      612      638
      277        2        2        2       12      187      167      166      186      616      613      614      639
      278        2        2        2       12      188      168      167      187      618      615      616      640
      279        2        2        2       12      189      169      168      188      620      617      618      641
      280        2        2        2       12      190      170      169      189      621      619      620      642
! ... 23 like lines cut
esel,s,type,,2
keyop,2,2,1                ! Apply load in local coordinate system
keyop,2,7,1                ! Use original area so load is constant in large deformation
esel,all
/gst,on,on
fini
*get,_numnode,node,0,count
*get,_numelem,elem,0,count
*get, _MAXELEMNUM, elem, 0, NUM, MAX
*get, _MAXNODENUM, node, 0, NUM, MAX
*get, _MAXELEMTYPE, etyp, 0, NUM, MAX
*get, _MAXREALCONST, real, 0, NUM, MAX
/go
/wb,load,end               !  done creating loads
/com,--- Number of total nodes = %_numnode%
/com,--- Number of contact elements = 42
/com,--- Number of spring elements = 0
/com,--- Number of bearing elements = 0
/com,--- Number of solid elements = 84
/com,--- Number of condensed parts = 0
/com,--- Number of total elements = %_numelem%
*get,_wallbsol,active,,time,wall
/com,****************************************************************************
/com,*************************    SOLUTION       ********************************
/com,****************************************************************************
/solu
antype,0                   ! static analysis
_thickRatio=  0     ! Ratio of thick parts in the model
eqsl,sparse,,,,,1
cntr,print,1               ! print out contact info and also make no initial contact an error
dmpoption,emat,no             ! Don't combine emat file for DANSYS
dmpoption,esav,no             ! Don't combine esav file for DANSYS
nldiag,cont,iter           ! print out contact info each equilibrium iteration
rescontrol,,none                 ! Do not keep any restart files
/com,****************************************************
/com,******************* SOLVE FOR LS 1 OF 1 ****************
esel,s,type,,2
nsle
sfe,all,1,pres,1,0.
sfe,all,2,pres,1,-250000.000000019
sfe,all,3,pres,1,0.
nsel,all
esel,all
/nopr
/gopr
nsub,1,1,1
time,1.
outres,erase
outres,all,none
outres,nsol,all,
outres,rsol,all
outres,eangl,all
outres,etmp,all
outres,veng,all
outres,strs,all,
outres,epel,all,
outres,eppl,all,
outres,cont,all,
! *********** WB SOLVE COMMAND ***********
! check interactive state
*get,ANSINTER_,active,,int
*if,ANSINTER_,ne,0,then
/eof
*endif
solve
/com *************** Write FE CONNECTORS ********* 
CEWRITE,file,ce,,INTE
/com,****************************************************
/com,*************** FINISHED SOLVE FOR LS 1 *************
*get,_wallasol,active,,time,wall
/nopr
*get,_numnode,node,0,count
*get,_numelem,elem,0,count
*get, _MAXELEMNUM, elem, 0, NUM, MAX
*get, _MAXNODENUM, node, 0, NUM, MAX,,,INTERNAL
*get, _MAXELEMTYPE, etyp, 0, NUM, MAX
*get, _MAXREALCONST, real, 0, NUM, MAX
/gopr
/post1
xmlo,ENCODING,ISO-8859-1
xmlo,parm
/xml,parm,xml
fini
/gopr
*get,_walldone,active,,time,wall
_preptime=(_wallbsol-_wallstrt)*3600
_solvtime=(_wallasol-_wallbsol)*3600
_posttime=(_walldone-_wallasol)*3600
_totaltim=(_walldone-_wallstrt)*3600
*get,_dlbratio,active,0,solu,dlbr
*get,_combtime,active,0,solu,comb
*get,_ssmode,active,0,solu,ssmm
*get,_ndofs,active,0,solu,ndof
*get,_sol_end_time,active,0,set,time
*if,_sol_end_time,eq,1.000000,then
/fclean				!clean distributed files
*endif
/com,--- Total number of nodes = %_numnode%
/com,--- Total number of elements = %_numelem%
/com,--- Element load balance ratio = %_dlbratio%
/com,--- Time to combine distributed files = %_combtime%
/com,--- Sparse memory mode = %_ssmode%
/com,--- Number of DOF = %_ndofs%
/wb,file,end               ! done with WB generated input
