/batch
/config,noeldb,1     ! force off writing results to database
*get,_wallstrt,active,,time,wall
! ANSYS input file written by Workbench version 2022 R1
! File used for geometry attach: C:\Users\Dharshan K\AppData\Local\Temp\WB_Dharshan K_1404_3\wbnew_files\dp0\SYS\DM\SYS.scdoc
/title,wbnew--Static Structural (A5)
! ****** Begin Custom Load Command Snippet ******
/COM, ACT Extensions:
/COM,     LSDYNA, 2021.1
/COM,     5f463412-bd3e-484b-87e7-cbc0a665e474, wbex
/COM,
! ****** End   Custom Load Command Snippet ******
*DIM,_wb_ProjectScratch_dir,string,248
_wb_ProjectScratch_dir(1) = 'C:\Users\Dharshan K\AppData\Local\Temp\WB_Dharshan K_1404_3\_ProjectScratch\Scr7DEE\'
*DIM,_wb_SolverFiles_dir,string,248
_wb_SolverFiles_dir(1) = 'C:\Users\Dharshan K\AppData\Local\Temp\WB_Dharshan K_1404_3\wbnew_files\dp0\SYS\MECH\'
*DIM,_wb_userfiles_dir,string,248
_wb_userfiles_dir(1) = 'C:\Users\Dharshan K\AppData\Local\Temp\WB_Dharshan K_1404_3\wbnew_files\user_files\'
/com,--- Data in consistent MKS units. See Solving Units in the help system for more information.
/units,MKS
/nopr
/wb,file,start              !  signify a WB generated input file
/prep7
! Turn off shape checking because checks already performed inside WB mesher.
! See help system for more information.
SHPP,OFF,,NOWARN
/nolist
etcon,set             ! allow ANSYS to choose best KEYOP's for 180x elements, resets any applicable keyopt to MAPDL defaults
/com,*********** Nodes for the whole assembly ***********
nblock,3,,749
(1i9,3e20.9e3)
        1     3.818181818E+00     1.000000000E-02     1.200000000E-01
        2     3.636363636E+00     1.000000000E-02     1.200000000E-01
        3     3.454545455E+00     1.000000000E-02     1.200000000E-01
        4     3.272727273E+00     1.000000000E-02     1.200000000E-01
        5     3.090909091E+00     1.000000000E-02     1.200000000E-01
        6     2.909090909E+00     1.000000000E-02     1.200000000E-01
        7     2.727272727E+00     1.000000000E-02     1.200000000E-01
        8     2.545454545E+00     1.000000000E-02     1.200000000E-01
        9     2.363636364E+00     1.000000000E-02     1.200000000E-01
       10     2.181818182E+00     1.000000000E-02     1.200000000E-01
       11     2.000000000E+00     1.000000000E-02     1.200000000E-01
       12     1.818181818E+00     1.000000000E-02     1.200000000E-01
       13     1.636363636E+00     1.000000000E-02     1.200000000E-01
       14     1.454545455E+00     1.000000000E-02     1.200000000E-01
       15     1.272727273E+00     1.000000000E-02     1.200000000E-01
       16     1.090909091E+00     1.000000000E-02     1.200000000E-01
       17     9.090909091E-01     1.000000000E-02     1.200000000E-01
       18     7.272727273E-01     1.000000000E-02     1.200000000E-01
       19     5.454545455E-01     1.000000000E-02     1.200000000E-01
       20     3.636363636E-01     1.000000000E-02     1.200000000E-01
! ... 662 like lines cut
/wb,elem,start            !  set before creation of elements
/com,*********** Elements for Body 1 "SYS\PartBody/Pad.1" ***********
et,1,186
keyo,1,2,1          ! set full integration on SOLID186
eblock,19,solid,,88
(19i9)
        1        1        1        1        0        0        0        0       20        0        1        1      156      178      206       42      177      179      207
      212      618      642      213      376      640      643      377      209      617      641      681
        1        1        1        1        0        0        0        0       20        0        2        1      206      178      156       43       64       77       78
      213      642      618      212      379      442      470      380      210      444      471      473
        1        1        1        1        0        0        0        0       20        0        3        1        2      155      156       42       41      176      177
      208      218      615      212      372      374      639      376      209      215      616      617
        1        1        1        1        0        0        0        0       20        0        4        1      156      155        2       43       78       79       44
      212      615      218      208      380      472      383      378      210      473      475      216
        1        1        1        1        0        0        0        0       20        0        5        2        3      154      155       41       40      175      176
      214      223      613      218      369      371      638      374      215      220      614      616
        1        1        1        1        0        0        0        0       20        0        6        2      155      154        3       44       79       80       45
      218      613      223      214      383      474      386      382      216      475      477      221
        1        1        1        1        0        0        0        0       20        0        7        3        4      153      154       40       39      174      175
      219      228      611      223      366      368      637      371      220      225      612      614
        1        1        1        1        0        0        0        0       20        0        8        3      154      153        4       45       80       81       46
      223      611      228      219      386      476      389      385      221      477      479      226
        1        1        1        1        0        0        0        0       20        0        9        4        5      152      153       39       38      173      174
      224      233      609      228      363      365      636      368      225      230      610      612
        1        1        1        1        0        0        0        0       20        0       10        4      153      152        5       46       81       82       47
      228      609      233      224      389      478      392      388      226      479      481      231
! ... 157 like lines cut
!Material Id = {E35D654D-C3F6-47A8-AE86-41FA2B5EF7AB}
/wb,elem,end               !  done creating elements
/com,*********** Send User Defined Coordinate System(s) ***********
local,12,0,2.,1.e-002,2.e-002,90.,0.,180.
csys,0
toffst,273.15,  ! Temperature offset from absolute zero
/com,*********** Set Reference Temperature ***********
tref,22.
/wb,mat,start              !  starting to send materials
/com,*********** Send Materials ***********
Temperature = 'TEMP' ! Temperature
MP,DENS,1,7850,	! kg m^-3
MP,ALPX,1,1.2e-05,	! C^-1
MP,C,1,434,	! J kg^-1 C^-1
MP,KXX,1,60.5,	! W m^-1 C^-1
MP,RSVX,1,1.7e-07,	! kg m^3 A^-2 s^-3
MP,EX,1,200000000000,	! Pa
MP,NUXY,1,0.3,
MP,MURX,1,10000,
MP,UVID,1,4dfed0dd-9180-4ab2-a9aa-e672f57c6ec7
MP,UMID,1,59002a79-71c2-428e-906b-55d7dbee100e

/wb,mat,end                !  done sending materials
!************************* Model Summary ********************
!SYS\PartBody/Pad.1,	Structural Steel,	matid,	1
!************************* End Model Summary ********************
! get the diagonal of the bounding box. Needed later for other things
*get,_xmin,node,,mnloc,x
*get,_ymin,node,,mnloc,y
*get,_zmin,node,,mnloc,z
*get,_xmax,node,,mxloc,x
*get,_ymax,node,,mxloc,y
*get,_zmax,node,,mxloc,z
_ASMDIAG=(_xmax-_xmin)*(_xmax-_xmin)+(_ymax-_ymin)*(_ymax-_ymin)+(_zmax-_zmin)*(_zmax-_zmin)
_ASMDIAG=SQRT(_ASMDIAG)
/wb,contact,start          !  starting to send contact
/wb,contact,end            !  done creating contacts
/golist
/wb,load,start             !  starting to send loads
/com,*********** Fixed Supports ***********
CMBLOCK,_FIXEDSU,NODE,        5
(8i10)
        77       178       179       471       641
cmsel,s,_FIXEDSU
d,all,all
nsel,all
/com,******* Constant Zero Displacement Y *******
CMBLOCK,_DISPZEROUY,NODE,        5
(8i10)
        99       180       181       514       644
cmsel,s,_DISPZEROUY
d,all,uy,0
nsel,all
/com,******* Constant Zero Displacement Z *******
CMBLOCK,_DISPZEROUZ,NODE,        5
(8i10)
        99       180       181       514       644
cmsel,s,_DISPZEROUZ
d,all,uz,0
nsel,all
/com,*********** Define Force Using Surface Effect Elements ***********
local,13,0,0.,0.,0.,0.,0.,0.
csys,0
et,2,156
keyop,2,5,1         !  No orientation node
eblock,10,,,2
(15i9)
      273        2        2        2       13      134      135      573
      274        2        2        2       13      134      111      537
-1
esel,s,type,,2
keyop,2,2,1                ! Apply load in local coordinate system
keyop,2,7,1                ! Use original area so load is constant in large deformation
esel,all
/gst,on,on
fini
*get,_numnode,node,0,count
*get,_numelem,elem,0,count
*get, _MAXELEMNUM, elem, 0, NUM, MAX
*get, _MAXNODENUM, node, 0, NUM, MAX
*get, _MAXELEMTYPE, etyp, 0, NUM, MAX
*get, _MAXREALCONST, real, 0, NUM, MAX
/go
/wb,load,end               !  done creating loads
/com,--- Number of total nodes = %_numnode%
/com,--- Number of contact elements = 2
/com,--- Number of spring elements = 0
/com,--- Number of bearing elements = 0
/com,--- Number of solid elements = 88
/com,--- Number of condensed parts = 0
/com,--- Number of total elements = %_numelem%
*get,_wallbsol,active,,time,wall
/com,****************************************************************************
/com,*************************    SOLUTION       ********************************
/com,****************************************************************************
/solu
antype,0                   ! static analysis
_thickRatio=  0     ! Ratio of thick parts in the model
eqsl,sparse,,,,,1
cntr,print,1               ! print out contact info and also make no initial contact an error
dmpoption,emat,no             ! Don't combine emat file for DANSYS
dmpoption,esav,no             ! Don't combine esav file for DANSYS
nldiag,cont,iter           ! print out contact info each equilibrium iteration
rescontrol,,none                 ! Do not keep any restart files
/com,****************************************************
/com,******************* SOLVE FOR LS 1 OF 1 ****************
esel,s,type,,2
nsle
sfe,all,1,pres,1,0.
sfe,all,2,pres,1,-500000.
sfe,all,3,pres,1,0.
nsel,all
esel,all
/nopr
/gopr
nsub,1,1,1
time,1.
outres,erase
outres,all,none
outres,nsol,all,
outres,rsol,all
outres,eangl,all
outres,etmp,all
outres,veng,all
outres,strs,all,
outres,epel,all,
outres,eppl,all,
outres,cont,all,
! *********** WB SOLVE COMMAND ***********
! check interactive state
*get,ANSINTER_,active,,int
*if,ANSINTER_,ne,0,then
/eof
*endif
solve
/com *************** Write FE CONNECTORS ********* 
CEWRITE,file,ce,,INTE
/com,****************************************************
/com,*************** FINISHED SOLVE FOR LS 1 *************
*get,_wallasol,active,,time,wall
/nopr
*get,_numnode,node,0,count
*get,_numelem,elem,0,count
*get, _MAXELEMNUM, elem, 0, NUM, MAX
*get, _MAXNODENUM, node, 0, NUM, MAX,,,INTERNAL
*get, _MAXELEMTYPE, etyp, 0, NUM, MAX
*get, _MAXREALCONST, real, 0, NUM, MAX
/gopr
/post1
xmlo,ENCODING,ISO-8859-1
xmlo,parm
/xml,parm,xml
fini
/gopr
*get,_walldone,active,,time,wall
_preptime=(_wallbsol-_wallstrt)*3600
_solvtime=(_wallasol-_wallbsol)*3600
_posttime=(_walldone-_wallasol)*3600
_totaltim=(_walldone-_wallstrt)*3600
*get,_dlbratio,active,0,solu,dlbr
*get,_combtime,active,0,solu,comb
*get,_ssmode,active,0,solu,ssmm
*get,_ndofs,active,0,solu,ndof
*get,_sol_end_time,active,0,set,time
*if,_sol_end_time,eq,1.000000,then
/fclean				!clean distributed files
*endif
/com,--- Total number of nodes = %_numnode%
/com,--- Total number of elements = %_numelem%
/com,--- Element load balance ratio = %_dlbratio%
/com,--- Time to combine distributed files = %_combtime%
/com,--- Sparse memory mode = %_ssmode%
/com,--- Number of DOF = %_ndofs%
/wb,file,end               ! done with WB generated input
